miqcp/testcases/nesta_case300_ieee__sad.m
%%%%%%%%%%%%%%%%%%%%%%%%%%%%%%%%%%%%%%%%%%%%%%%%%%%%%%%%%%%%%%%%%%%%%%%%%%%
%%%%                                                                  %%%%%
%%%%      NICTA Energy System Test Case Archive (NESTA) - v0.7.0      %%%%%
%%%%           Optimal Power Flow - Small Angle Difference            %%%%%
%%%%                         05 - June - 2017                         %%%%%
%%%%                                                                  %%%%%
%%%%%%%%%%%%%%%%%%%%%%%%%%%%%%%%%%%%%%%%%%%%%%%%%%%%%%%%%%%%%%%%%%%%%%%%%%%
function mpc = nesta_case300_ieee__sad
mpc.version = '2';
mpc.baseMVA = 100.0;

%% bus data
%	bus_i	type	Pd	Qd	Gs	Bs	area	Vm	Va	baseKV	zone	Vmax	Vmin
mpc.bus = [
	1	 1	 90.0	 49.0	 0.0	 0.0	 1	    1.01481	   -0.37726	 115.0	 1	    1.06000	    0.94000;
	2	 1	 56.0	 15.0	 0.0	 0.0	 1	    1.04144	   -2.29791	 115.0	 1	    1.06000	    0.94000;
	3	 1	 20.0	 0.0	 0.0	 0.0	 1	    1.00932	   -6.01478	 230.0	 1	    1.06000	    0.94000;
	4	 1	 0.0	 0.0	 0.0	 0.0	 1	    1.04411	   -6.80820	 345.0	 1	    1.06000	    0.94000;
	5	 1	 353.0	 130.0	 0.0	 0.0	 1	    1.00647	   -3.02063	 115.0	 1	    1.06000	    0.94000;
	6	 1	 120.0	 41.0	 0.0	 0.0	 1	    1.03716	   -3.45828	 115.0	 1	    1.06000	    0.94000;
	7	 1	 0.0	 0.0	 0.0	 0.0	 1	    1.00338	   -6.03764	 230.0	 1	    1.06000	    0.94000;
	8	 2	 63.0	 14.0	 0.0	 0.0	 1	    1.01897	   -7.61661	 115.0	 1	    1.06000	    0.94000;
	9	 1	 96.0	 43.0	 0.0	 0.0	 1	    0.99503	   -7.81157	 115.0	 1	    1.06000	    0.94000;
	10	 2	 153.0	 33.0	 0.0	 0.0	 1	    1.02636	  -11.81961	 230.0	 1	    1.06000	    0.94000;
	11	 1	 83.0	 21.0	 0.0	 0.0	 1	    1.00502	  -10.93971	 115.0	 1	    1.06000	    0.94000;
	12	 1	 0.0	 0.0	 0.0	 0.0	 1	    1.00668	   -7.87982	 230.0	 1	    1.06000	    0.94000;
	13	 1	 58.0	 10.0	 0.0	 0.0	 1	    1.00307	  -14.62179	 115.0	 1	    1.06000	    0.94000;
	14	 1	 160.0	 60.0	 0.0	 0.0	 1	    1.00235	  -12.37233	 115.0	 1	    1.06000	    0.94000;
	15	 1	 126.7	 23.0	 0.0	 0.0	 1	    1.03136	  -13.75315	 115.0	 1	    1.06000	    0.94000;
	16	 1	 0.0	 0.0	 0.0	 0.0	 1	    1.04668	   -9.84326	 345.0	 1	    1.06000	    0.94000;
	17	 1	 561.0	 220.0	 0.0	 0.0	 1	    1.05220	  -15.06512	 115.0	 1	    1.06000	    0.94000;
	19	 1	 0.0	 0.0	 0.0	 0.0	 1	    0.99872	  -11.67637	 230.0	 1	    1.06000	    0.94000;
	20	 2	 605.0	 120.0	 0.0	 0.0	 1	    1.01405	  -17.13838	 115.0	 1	    1.06000	    0.94000;
	21	 1	 77.0	 1.0	 0.0	 0.0	 1	    0.98806	  -12.96869	 230.0	 1	    1.06000	    0.94000;
	22	 1	 81.0	 23.0	 0.0	 0.0	 1	    1.00963	  -17.57085	 115.0	 1	    1.06000	    0.94000;
	23	 1	 21.0	 7.0	 0.0	 0.0	 1	    1.06000	  -14.69745	 115.0	 1	    1.06000	    0.94000;
	24	 1	 0.0	 0.0	 0.0	 0.0	 1	    1.02471	  -15.06574	 230.0	 1	    1.06000	    0.94000;
	25	 1	 45.0	 12.0	 0.0	 0.0	 1	    1.03536	  -16.80738	 115.0	 1	    1.06000	    0.94000;
	26	 1	 28.0	 9.0	 0.0	 0.0	 1	    1.01321	  -19.25376	 115.0	 1	    1.06000	    0.94000;
	27	 1	 69.0	 13.0	 0.0	 0.0	 1	    0.98950	  -21.22186	 115.0	 1	    1.06000	    0.94000;
	33	 1	 55.0	 6.0	 0.0	 0.0	 1	    1.03382	  -14.47879	 115.0	 1	    1.06000	    0.94000;
	34	 1	 0.0	 0.0	 0.0	 0.0	 1	    1.05332	  -11.36347	 345.0	 1	    1.06000	    0.94000;
	35	 1	 0.0	 0.0	 0.0	 0.0	 1	    1.00587	  -22.25079	 115.0	 1	    1.06000	    0.94000;
	36	 1	 0.0	 0.0	 0.0	 0.0	 1	    1.03009	  -20.37343	 230.0	 1	    1.06000	    0.94000;
	37	 1	 85.0	 32.0	 0.0	 0.0	 1	    1.02874	  -13.47145	 115.0	 1	    1.06000	    0.94000;
	38	 1	 155.0	 18.0	 0.0	 0.0	 1	    1.02959	  -14.94645	 115.0	 1	    1.06000	    0.94000;
	39	 1	 0.0	 0.0	 0.0	 0.0	 1	    1.06000	   -9.24889	 345.0	 1	    1.06000	    0.94000;
	40	 1	 46.0	 -21.0	 0.0	 0.0	 1	    1.03203	  -14.82125	 115.0	 1	    1.06000	    0.94000;
	41	 1	 86.0	 0.0	 0.0	 0.0	 1	    1.03655	  -13.08059	 115.0	 1	    1.06000	    0.94000;
	42	 1	 0.0	 0.0	 0.0	 0.0	 1	    1.05673	  -10.99353	 345.0	 1	    1.06000	    0.94000;
	43	 1	 39.0	 9.0	 0.0	 0.0	 1	    1.01631	  -18.46967	 115.0	 1	    1.06000	    0.94000;
	44	 1	 195.0	 29.0	 0.0	 0.0	 1	    1.02900	  -18.68739	 115.0	 1	    1.06000	    0.94000;
	45	 1	 0.0	 0.0	 0.0	 0.0	 1	    1.04565	  -16.15286	 230.0	 1	    1.06000	    0.94000;
	46	 1	 0.0	 0.0	 0.0	 0.0	 1	    1.05455	  -13.88019	 345.0	 1	    1.06000	    0.94000;
	47	 1	 58.0	 11.8	 0.0	 0.0	 1	    1.00525	  -22.18290	 115.0	 1	    1.06000	    0.94000;
	48	 1	 41.0	 19.0	 0.0	 0.0	 1	    1.01757	  -15.50541	 115.0	 1	    1.06000	    0.94000;
	49	 1	 92.0	 26.0	 0.0	 0.0	 1	    1.04315	   -3.52239	 115.0	 1	    1.06000	    0.94000;
	51	 1	 -5.0	 5.0	 0.0	 0.0	 1	    1.02541	  -10.44544	 115.0	 1	    1.06000	    0.94000;
	52	 1	 61.0	 28.0	 0.0	 0.0	 1	    1.00028	  -15.76307	 115.0	 1	    1.06000	    0.94000;
	53	 1	 69.0	 3.0	 0.0	 0.0	 1	    1.01169	  -19.56855	 115.0	 1	    1.06000	    0.94000;
	54	 1	 10.0	 1.0	 0.0	 0.0	 1	    1.02048	  -18.82867	 115.0	 1	    1.06000	    0.94000;
	55	 1	 22.0	 10.0	 0.0	 0.0	 1	    1.02103	  -17.29839	 115.0	 1	    1.06000	    0.94000;
	57	 1	 98.0	 20.0	 0.0	 0.0	 1	    1.04454	  -15.28447	 115.0	 1	    1.06000	    0.94000;
	58	 1	 14.0	 1.0	 0.0	 0.0	 1	    1.02616	  -11.52817	 115.0	 1	    1.06000	    0.94000;
	59	 1	 218.0	 106.0	 0.0	 0.0	 1	    1.01880	  -10.24652	 115.0	 1	    1.06000	    0.94000;
	60	 1	 0.0	 0.0	 0.0	 0.0	 1	    1.05432	  -12.38017	 230.0	 1	    1.06000	    0.94000;
	61	 1	 227.0	 110.0	 0.0	 0.0	 1	    1.03179	   -8.25031	 115.0	 1	    1.06000	    0.94000;
	62	 1	 0.0	 0.0	 0.0	 0.0	 1	    1.04694	   -6.19400	 230.0	 1	    1.06000	    0.94000;
	63	 2	 70.0	 30.0	 0.0	 0.0	 1	    0.99646	  -22.21953	 115.0	 1	    1.06000	    0.94000;
	64	 1	 0.0	 0.0	 0.0	 0.0	 1	    0.98405	  -17.74698	 230.0	 1	    1.06000	    0.94000;
	69	 1	 0.0	 0.0	 0.0	 0.0	 1	    0.99295	  -24.64360	 115.0	 1	    1.06000	    0.94000;
	70	 1	 56.0	 20.0	 0.0	 0.0	 1	    0.98943	  -23.92861	 115.0	 1	    1.06000	    0.94000;
	71	 1	 116.0	 38.0	 0.0	 0.0	 1	    1.01558	  -19.02557	 115.0	 1	    1.06000	    0.94000;
	72	 1	 57.0	 19.0	 0.0	 0.0	 1	    1.00073	  -22.39412	 115.0	 1	    1.06000	    0.94000;
	73	 1	 224.0	 71.0	 0.0	 0.0	 1	    1.00570	  -22.50165	 115.0	 1	    1.06000	    0.94000;
	74	 1	 0.0	 0.0	 0.0	 0.0	 1	    1.02660	  -20.30359	 230.0	 1	    1.06000	    0.94000;
	76	 2	 208.0	 107.0	 0.0	 0.0	 1	    0.99385	  -23.05417	 115.0	 1	    1.06000	    0.94000;
	77	 1	 74.0	 28.0	 0.0	 0.0	 1	    1.01535	  -21.51832	 115.0	 1	    1.06000	    0.94000;
	78	 1	 0.0	 0.0	 0.0	 0.0	 1	    1.02201	  -20.64129	 115.0	 1	    1.06000	    0.94000;
	79	 1	 48.0	 14.0	 0.0	 0.0	 1	    1.01270	  -21.92931	 115.0	 1	    1.06000	    0.94000;
	80	 1	 28.0	 7.0	 0.0	 0.0	 1	    1.01723	  -23.11028	 115.0	 1	    1.06000	    0.94000;
	81	 1	 0.0	 0.0	 0.0	 0.0	 1	    1.05459	  -17.93749	 345.0	 1	    1.06000	    0.94000;
	84	 2	 37.0	 13.0	 0.0	 0.0	 1	    1.06000	  -13.27160	 115.0	 1	    1.06000	    0.94000;
	85	 1	 0.0	 0.0	 0.0	 0.0	 1	    1.03740	  -11.86959	 230.0	 1	    1.06000	    0.94000;
	86	 1	 0.0	 0.0	 0.0	 0.0	 1	    1.03725	  -11.08346	 230.0	 1	    1.06000	    0.94000;
	87	 1	 0.0	 0.0	 0.0	 0.0	 1	    1.02770	  -12.59657	 230.0	 1	    1.06000	    0.94000;
	88	 1	 0.0	 0.0	 0.0	 0.0	 1	    1.04070	  -19.40419	 230.0	 1	    1.06000	    0.94000;
	89	 1	 44.2	 0.0	 0.0	 0.0	 1	    1.03734	  -15.18520	 115.0	 1	    1.06000	    0.94000;
	90	 1	 66.0	 0.0	 0.0	 0.0	 1	    1.03369	  -13.56525	 115.0	 1	    1.06000	    0.94000;
	91	 2	 17.4	 0.0	 0.0	 0.0	 1	    1.06000	  -13.77924	 115.0	 1	    1.06000	    0.94000;
	92	 2	 15.8	 0.0	 0.0	 0.0	 1	    1.06000	   -7.43648	 115.0	 1	    1.06000	    0.94000;
	94	 1	 60.3	 0.0	 0.0	 0.0	 1	    1.01995	  -13.75053	 115.0	 1	    1.06000	    0.94000;
	97	 1	 39.9	 0.0	 0.0	 0.0	 1	    1.04350	  -11.36721	 115.0	 1	    1.06000	    0.94000;
	98	 2	 66.7	 0.0	 0.0	 0.0	 1	    1.06000	   -3.62056	 115.0	 1	    1.06000	    0.94000;
	99	 1	 83.5	 0.0	 0.0	 0.0	 1	    1.03577	  -12.44964	 115.0	 1	    1.06000	    0.94000;
	100	 1	 0.0	 0.0	 0.0	 0.0	 1	    1.04553	   -8.79187	 115.0	 1	    1.06000	    0.94000;
	102	 1	 77.8	 0.0	 0.0	 0.0	 1	    1.03942	  -10.08823	 115.0	 1	    1.06000	    0.94000;
	103	 1	 32.0	 0.0	 0.0	 0.0	 1	    1.04609	  -11.43040	 115.0	 1	    1.06000	    0.94000;
	104	 1	 8.6	 0.0	 0.0	 0.0	 1	    1.03964	  -11.12711	 115.0	 1	    1.06000	    0.94000;
	105	 1	 49.6	 0.0	 0.0	 0.0	 1	    1.04157	  -12.13316	 115.0	 1	    1.06000	    0.94000;
	107	 1	 4.6	 0.0	 0.0	 0.0	 1	    1.03165	  -13.84830	 115.0	 1	    1.06000	    0.94000;
	108	 2	 112.1	 0.0	 0.0	 0.0	 1	    1.03920	  -12.01451	 115.0	 1	    1.06000	    0.94000;
	109	 1	 30.7	 0.0	 0.0	 0.0	 1	    1.01485	  -21.36125	 115.0	 1	    1.06000	    0.94000;
	110	 1	 63.0	 0.0	 0.0	 0.0	 1	    1.01385	  -19.54154	 115.0	 1	    1.06000	    0.94000;
	112	 1	 19.6	 0.0	 0.0	 0.0	 1	    1.01108	  -25.40572	 115.0	 1	    1.06000	    0.94000;
	113	 1	 26.2	 0.0	 0.0	 0.0	 1	    1.00182	  -23.19761	 115.0	 1	    1.06000	    0.94000;
	114	 1	 18.2	 0.0	 0.0	 0.0	 1	    1.01295	  -25.53795	 115.0	 1	    1.06000	    0.94000;
	115	 1	 0.0	 0.0	 0.0	 0.0	 1	    0.98242	  -26.77802	 115.0	 2	    1.06000	    0.94000;
	116	 1	 0.0	 0.0	 0.0	 0.0	 1	    1.05062	  -23.03597	 115.0	 2	    1.06000	    0.94000;
	117	 1	 0.0	 0.0	 0.0	 325.0	 1	    0.96212	  -18.99979	 115.0	 2	    1.06000	    0.94000;
	118	 1	 14.1	 650.0	 0.0	 0.0	 1	    0.95706	  -18.58971	 115.0	 2	    1.06000	    0.94000;
	119	 2	 0.0	 0.0	 0.0	 0.0	 1	    1.06000	  -11.75475	 115.0	 2	    1.06000	    0.94000;
	120	 1	 777.0	 215.0	 0.0	 55.0	 1	    0.98576	  -23.60006	 115.0	 2	    1.06000	    0.94000;
	121	 1	 535.0	 55.0	 0.0	 0.0	 1	    1.01309	  -26.87724	 115.0	 2	    1.06000	    0.94000;
	122	 1	 229.1	 11.8	 0.0	 0.0	 1	    0.99509	  -26.83934	 115.0	 2	    1.06000	    0.94000;
	123	 1	 78.0	 1.4	 0.0	 0.0	 1	    1.02372	  -27.74611	 115.0	 2	    1.06000	    0.94000;
	124	 2	 276.4	 59.3	 0.0	 0.0	 1	    1.05160	  -23.11246	 115.0	 2	    1.06000	    0.94000;
	125	 2	 514.8	 82.7	 0.0	 0.0	 1	    1.02561	  -28.12187	 115.0	 2	    1.06000	    0.94000;
	126	 1	 57.9	 5.1	 0.0	 0.0	 1	    1.01113	  -22.55495	 115.0	 2	    1.06000	    0.94000;
	127	 1	 380.8	 37.0	 0.0	 0.0	 1	    1.00735	  -18.02853	 230.0	 2	    1.06000	    0.94000;
	128	 1	 0.0	 0.0	 0.0	 0.0	 1	    1.00876	  -12.40143	 230.0	 2	    1.06000	    0.94000;
	129	 1	 0.0	 0.0	 0.0	 0.0	 1	    1.00917	  -12.29081	 230.0	 2	    1.06000	    0.94000;
	130	 1	 0.0	 0.0	 0.0	 0.0	 1	    1.03003	   -4.95019	 230.0	 2	    1.06000	    0.94000;
	131	 1	 0.0	 0.0	 0.0	 0.0	 1	    0.99704	   -5.69698	 230.0	 2	    1.06000	    0.94000;
	132	 1	 0.0	 0.0	 0.0	 0.0	 1	    1.01600	   -7.39645	 230.0	 2	    1.06000	    0.94000;
	133	 1	 0.0	 0.0	 0.0	 0.0	 1	    1.00522	  -12.39855	 230.0	 2	    1.06000	    0.94000;
	134	 1	 0.0	 0.0	 0.0	 0.0	 1	    1.02870	  -13.71834	 230.0	 2	    1.06000	    0.94000;
	135	 1	 169.2	 41.6	 0.0	 0.0	 1	    1.03089	  -14.54996	 230.0	 2	    1.06000	    0.94000;
	136	 1	 55.2	 18.2	 0.0	 0.0	 1	    1.06000	  -10.79109	 230.0	 2	    1.06000	    0.94000;
	137	 1	 273.6	 99.8	 0.0	 0.0	 1	    1.04643	   -6.53263	 230.0	 2	    1.06000	    0.94000;
	138	 2	 1019.2	 135.2	 0.0	 0.0	 1	    1.06000	  -11.17464	 230.0	 2	    1.06000	    0.94000;
	139	 1	 595.0	 83.3	 0.0	 0.0	 1	    1.00892	   -4.12029	 115.0	 2	    1.06000	    0.94000;
	140	 1	 387.7	 114.7	 0.0	 0.0	 1	    1.04309	   -6.90789	 230.0	 2	    1.06000	    0.94000;
	141	 2	 145.0	 58.0	 0.0	 0.0	 1	    1.04778	   -2.26244	 230.0	 2	    1.06000	    0.94000;
	142	 1	 56.5	 24.5	 0.0	 0.0	 1	    1.01517	   -3.96576	 230.0	 2	    1.06000	    0.94000;
	143	 2	 89.5	 35.5	 0.0	 0.0	 1	    1.04534	    4.66314	 230.0	 2	    1.06000	    0.94000;
	144	 1	 0.0	 0.0	 0.0	 0.0	 1	    1.04477	   -5.35348	 230.0	 2	    1.06000	    0.94000;
	145	 1	 24.0	 14.0	 0.0	 0.0	 1	    1.00885	   -2.99186	 230.0	 2	    1.06000	    0.94000;
	146	 2	 0.0	 0.0	 0.0	 0.0	 1	    1.06000	   -0.39368	 230.0	 2	    1.06000	    0.94000;
	147	 2	 0.0	 0.0	 0.0	 0.0	 1	    1.06000	   -1.22550	 230.0	 2	    1.06000	    0.94000;
	148	 1	 63.0	 25.0	 0.0	 0.0	 1	    1.06000	    0.16260	 230.0	 2	    1.06000	    0.94000;
	149	 2	 0.0	 0.0	 0.0	 0.0	 1	    1.06000	    1.61257	 230.0	 2	    1.06000	    0.94000;
	150	 1	 0.0	 0.0	 0.0	 0.0	 1	    0.99969	   -5.61026	 230.0	 2	    1.06000	    0.94000;
	151	 1	 0.0	 0.0	 0.0	 0.0	 1	    1.01593	   -6.35850	 230.0	 2	    1.06000	    0.94000;
	152	 2	 17.0	 9.0	 0.0	 0.0	 1	    1.05793	   -8.99412	 230.0	 2	    1.06000	    0.94000;
	153	 2	 0.0	 0.0	 0.0	 0.0	 1	    1.05876	   -3.72532	 230.0	 2	    1.06000	    0.94000;
	154	 1	 70.0	 5.0	 0.0	 34.5	 1	    0.99069	  -14.92071	 115.0	 2	    1.06000	    0.94000;
	155	 1	 200.0	 50.0	 0.0	 0.0	 1	    1.04780	   -6.17013	 230.0	 2	    1.06000	    0.94000;
	156	 2	 75.0	 50.0	 0.0	 0.0	 1	    0.99183	   -7.73236	 115.0	 2	    1.06000	    0.94000;
	157	 1	 123.5	 -24.3	 0.0	 0.0	 1	    1.00673	  -24.16053	 230.0	 2	    1.06000	    0.94000;
	158	 1	 0.0	 0.0	 0.0	 0.0	 1	    1.02078	  -22.65734	 230.0	 2	    1.06000	    0.94000;
	159	 1	 33.0	 16.5	 0.0	 0.0	 1	    1.01086	  -22.46738	 230.0	 2	    1.06000	    0.94000;
	160	 1	 0.0	 0.0	 0.0	 0.0	 1	    1.02593	  -22.92727	 230.0	 2	    1.06000	    0.94000;
	161	 1	 35.0	 15.0	 0.0	 0.0	 1	    1.05677	   -4.91856	 230.0	 2	    1.06000	    0.94000;
	162	 1	 85.0	 24.0	 0.0	 0.0	 1	    1.02460	    2.94580	 230.0	 2	    1.06000	    0.94000;
	163	 1	 0.0	 0.4	 0.0	 0.0	 1	    1.06000	   -5.23116	 230.0	 2	    1.06000	    0.94000;
	164	 1	 0.0	 0.0	 0.0	 -212.0	 1	    1.01476	   -3.07103	 230.0	 2	    1.06000	    0.94000;
	165	 1	 0.0	 0.0	 0.0	 0.0	 1	    1.02464	    8.63600	 230.0	 2	    1.06000	    0.94000;
	166	 1	 0.0	 0.0	 0.0	 -103.0	 1	    1.01510	   11.52172	 230.0	 2	    1.06000	    0.94000;
	167	 1	 299.9	 95.7	 0.0	 0.0	 1	    0.97985	  -15.11277	 230.0	 2	    1.06000	    0.94000;
	168	 1	 0.0	 0.0	 0.0	 0.0	 1	    1.00875	  -12.41826	 230.0	 2	    1.06000	    0.94000;
	169	 1	 0.0	 0.0	 0.0	 0.0	 1	    0.99376	  -14.41683	 230.0	 2	    1.06000	    0.94000;
	170	 2	 481.8	 205.0	 0.0	 0.0	 1	    0.94000	  -10.34041	 115.0	 2	    1.06000	    0.94000;
	171	 2	 763.6	 291.1	 0.0	 0.0	 1	    0.98619	  -16.84418	 115.0	 2	    1.06000	    0.94000;
	172	 1	 26.5	 0.0	 0.0	 0.0	 1	    1.02257	   -7.86081	 115.0	 2	    1.06000	    0.94000;
	173	 1	 163.5	 43.0	 0.0	 53.0	 1	    0.98902	  -15.28691	 115.0	 2	    1.06000	    0.94000;
	174	 1	 0.0	 0.0	 0.0	 0.0	 1	    1.06000	   -4.90952	 115.0	 2	    1.06000	    0.94000;
	175	 1	 176.0	 83.0	 0.0	 0.0	 1	    0.97611	   -9.02148	 115.0	 2	    1.06000	    0.94000;
	176	 2	 5.0	 4.0	 0.0	 0.0	 1	    1.06000	   -1.00382	 115.0	 2	    1.06000	    0.94000;
	177	 2	 28.0	 12.0	 0.0	 0.0	 1	    1.00726	   -5.26911	 115.0	 2	    1.06000	    0.94000;
	178	 1	 427.4	 173.6	 0.0	 0.0	 1	    0.94000	   -9.69950	 115.0	 2	    1.06000	    0.94000;
	179	 1	 74.0	 29.0	 0.0	 45.0	 1	    0.96966	  -11.38897	 115.0	 2	    1.06000	    0.94000;
	180	 1	 69.5	 49.3	 0.0	 0.0	 1	    0.97995	   -6.03636	 115.0	 2	    1.06000	    0.94000;
	181	 1	 73.4	 0.0	 0.0	 0.0	 1	    1.05075	   -6.18130	 230.0	 2	    1.06000	    0.94000;
	182	 1	 240.7	 89.0	 0.0	 0.0	 1	    1.04483	   -6.52539	 230.0	 2	    1.06000	    0.94000;
	183	 1	 40.0	 4.0	 0.0	 0.0	 1	    0.98767	   -6.84307	 115.0	 2	    1.06000	    0.94000;
	184	 1	 136.8	 16.6	 0.0	 0.0	 1	    1.04164	   -7.82275	 230.0	 2	    1.06000	    0.94000;
	185	 2	 0.0	 0.0	 0.0	 0.0	 1	    1.06000	   -2.39448	 230.0	 2	    1.06000	    0.94000;
	186	 2	 59.8	 24.3	 0.0	 0.0	 1	    1.06000	   -2.41639	 230.0	 2	    1.06000	    0.94000;
	187	 2	 59.8	 24.3	 0.0	 0.0	 1	    1.06000	   -2.92102	 230.0	 2	    1.06000	    0.94000;
	188	 1	 182.6	 43.6	 0.0	 0.0	 1	    1.05135	   -5.53166	 230.0	 2	    1.06000	    0.94000;
	189	 1	 7.0	 2.0	 0.0	 0.0	 1	    1.02867	  -28.78364	 66.0	 3	    1.06000	    0.94000;
	190	 2	 0.0	 0.0	 0.0	 -150.0	 1	    1.04977	  -18.61173	 345.0	 3	    1.06000	    0.94000;
	191	 2	 489.0	 53.0	 0.0	 0.0	 1	    1.04056	  -15.77804	 230.0	 3	    1.06000	    0.94000;
	192	 1	 800.0	 72.0	 0.0	 0.0	 1	    0.97222	  -31.40804	 230.0	 3	    1.06000	    0.94000;
	193	 1	 0.0	 0.0	 0.0	 0.0	 1	    1.01849	  -27.73227	 66.0	 3	    1.06000	    0.94000;
	194	 1	 0.0	 0.0	 0.0	 0.0	 1	    1.06000	  -17.35573	 345.0	 3	    1.06000	    0.94000;
	195	 1	 0.0	 0.0	 0.0	 0.0	 1	    1.05007	  -19.27873	 345.0	 3	    1.06000	    0.94000;
	196	 1	 10.0	 3.0	 0.0	 0.0	 1	    0.99984	  -27.81655	 115.0	 3	    1.06000	    0.94000;
	197	 1	 43.0	 14.0	 0.0	 0.0	 1	    1.01758	  -26.32546	 115.0	 3	    1.06000	    0.94000;
	198	 2	 64.0	 21.0	 0.0	 0.0	 1	    1.04626	  -26.23559	 115.0	 3	    1.06000	    0.94000;
	199	 1	 35.0	 12.0	 0.0	 0.0	 1	    0.99000	  -27.96368	 115.0	 3	    1.06000	    0.94000;
	200	 1	 27.0	 12.0	 0.0	 0.0	 1	    1.00069	  -26.43194	 115.0	 3	    1.06000	    0.94000;
	201	 1	 41.0	 14.0	 0.0	 0.0	 1	    1.00560	  -26.93539	 66.0	 1	    1.06000	    0.94000;
	202	 1	 38.0	 13.0	 0.0	 0.0	 1	    1.02452	  -26.44880	 66.0	 3	    1.06000	    0.94000;
	203	 1	 42.0	 14.0	 0.0	 0.0	 1	    1.03359	  -25.76160	 115.0	 3	    1.06000	    0.94000;
	204	 1	 72.0	 24.0	 0.0	 0.0	 1	    1.00416	  -26.66041	 66.0	 3	    1.06000	    0.94000;
	205	 1	 0.0	 -5.0	 0.0	 0.0	 1	    1.01501	  -27.23417	 66.0	 3	    1.06000	    0.94000;
	206	 1	 12.0	 2.0	 0.0	 0.0	 1	    1.03916	  -26.69095	 66.0	 3	    1.06000	    0.94000;
	207	 1	 -21.0	 -14.2	 0.0	 0.0	 1	    1.06000	  -25.74591	 66.0	 1	    1.06000	    0.94000;
	208	 1	 7.0	 2.0	 0.0	 0.0	 1	    1.02301	  -28.31745	 66.0	 3	    1.06000	    0.94000;
	209	 1	 38.0	 13.0	 0.0	 0.0	 1	    1.02811	  -29.27555	 66.0	 3	    1.06000	    0.94000;
	210	 1	 0.0	 0.0	 0.0	 0.0	 1	    1.01125	  -27.29839	 115.0	 3	    1.06000	    0.94000;
	211	 1	 96.0	 7.0	 0.0	 0.0	 1	    1.02877	  -23.89950	 115.0	 3	    1.06000	    0.94000;
	212	 1	 0.0	 0.0	 0.0	 0.0	 1	    1.03777	  -21.80525	 138.0	 3	    1.06000	    0.94000;
	213	 2	 0.0	 0.0	 0.0	 0.0	 1	    1.06000	    0.17229	 16.5	 3	    1.06000	    0.94000;
	214	 1	 22.0	 16.0	 0.0	 0.0	 1	    1.03072	   -8.51685	 138.0	 3	    1.06000	    0.94000;
	215	 1	 47.0	 26.0	 0.0	 0.0	 1	    1.01718	  -13.35993	 138.0	 3	    1.06000	    0.94000;
	216	 1	 176.0	 105.0	 0.0	 0.0	 1	    0.99902	  -16.65624	 138.0	 3	    1.06000	    0.94000;
	217	 1	 100.0	 75.0	 0.0	 0.0	 1	    1.03680	  -18.55998	 138.0	 3	    1.06000	    0.94000;
	218	 1	 131.0	 96.0	 0.0	 0.0	 1	    1.02405	  -19.18082	 138.0	 3	    1.06000	    0.94000;
	219	 1	 0.0	 0.0	 0.0	 0.0	 1	    1.05742	  -18.48565	 345.0	 3	    1.06000	    0.94000;
	220	 2	 285.0	 100.0	 0.0	 0.0	 1	    1.04666	  -17.51925	 138.0	 3	    1.06000	    0.94000;
	221	 2	 171.0	 70.0	 0.0	 0.0	 1	    1.05354	  -20.42328	 138.0	 3	    1.06000	    0.94000;
...
];

%% generator data
%	bus	Pg	Qg	Qmax	Qmin	Vg	mBase	status	Pmax	Pmin	Pc1	Pc2	Qc1min	Qc1max	Qc2min	Qc2max	ramp_agc	ramp_10	ramp_30	ramp_q	apf
mpc.gen = [
	8	 0.0	 10.0	 10.0	 -10.0	 1.01897	 100.0	 1	 0.0	 0.0	 0.0	 0.0	 0.0	 0.0	 0.0	 0.0	 0.0	 0.0	 0.0	 0.0	 0.0;
	10	 0.0	 20.0	 20.0	 -20.0	 1.02636	 100.0	 1	 0.0	 0.0	 0.0	 0.0	 0.0	 0.0	 0.0	 0.0	 0.0	 0.0	 0.0	 0.0	 0.0;
	20	 0.0	 20.0	 20.0	 -20.0	 1.01405	 100.0	 1	 0.0	 0.0	 0.0	 0.0	 0.0	 0.0	 0.0	 0.0	 0.0	 0.0	 0.0	 0.0	 0.0;
	63	 0.0	 25.0	 25.0	 -25.0	 0.99646	 100.0	 1	 0.0	 0.0	 0.0	 0.0	 0.0	 0.0	 0.0	 0.0	 0.0	 0.0	 0.0	 0.0	 0.0;
	76	 0.0	 35.0	 35.0	 12.0	 0.99385	 100.0	 1	 0.0	 0.0	 0.0	 0.0	 0.0	 0.0	 0.0	 0.0	 0.0	 0.0	 0.0	 0.0	 0.0;
	84	 423.0	 149.717	 212.0	 -212.0	 1.06	 100.0	 1	 423.0	 0.0	 0.0	 0.0	 0.0	 0.0	 0.0	 0.0	 0.0	 0.0	 0.0	 0.0	 0.0;
	91	 0.0	 57.974	 91.0	 -11.0	 1.06	 100.0	 1	 182.0	 0.0	 0.0	 0.0	 0.0	 0.0	 0.0	 0.0	 0.0	 0.0	 0.0	 0.0	 0.0;
	92	 238.142	 15.868	 153.0	 -153.0	 1.06	 100.0	 1	 313.0	 0.0	 0.0	 0.0	 0.0	 0.0	 0.0	 0.0	 0.0	 0.0	 0.0	 0.0	 0.0;
	98	 315.0	 -30.0	 56.0	 -30.0	 1.06	 100.0	 1	 315.0	 0.0	 0.0	 0.0	 0.0	 0.0	 0.0	 0.0	 0.0	 0.0	 0.0	 0.0	 0.0;
	108	 327.0	 -9.597	 77.0	 -24.0	 1.0392	 100.0	 1	 327.0	 0.0	 0.0	 0.0	 0.0	 0.0	 0.0	 0.0	 0.0	 0.0	 0.0	 0.0	 0.0;
	119	 1660.003	 907.891	 985.0	 -500.0	 1.06	 100.0	 1	 1969.0	 0.0	 0.0	 0.0	 0.0	 0.0	 0.0	 0.0	 0.0	 0.0	 0.0	 0.0	 0.0;
	124	 360.36	 120.0	 120.0	 -60.0	 1.0516	 100.0	 1	 364.0	 0.0	 0.0	 0.0	 0.0	 0.0	 0.0	 0.0	 0.0	 0.0	 0.0	 0.0	 0.0;
	125	 0.0	 200.0	 200.0	 -25.0	 1.02561	 100.0	 1	 0.0	 0.0	 0.0	 0.0	 0.0	 0.0	 0.0	 0.0	 0.0	 0.0	 0.0	 0.0	 0.0;
	138	 0.0	 296.991	 350.0	 -125.0	 1.06	 100.0	 1	 0.0	 0.0	 0.0	 0.0	 0.0	 0.0	 0.0	 0.0	 0.0	 0.0	 0.0	 0.0	 0.0;
	141	 322.0	 48.866	 75.0	 -50.0	 1.04778	 100.0	 1	 322.0	 0.0	 0.0	 0.0	 0.0	 0.0	 0.0	 0.0	 0.0	 0.0	 0.0	 0.0	 0.0;
	143	 1090.0	 120.851	 300.0	 -100.0	 1.04534	 100.0	 1	 1090.0	 0.0	 0.0	 0.0	 0.0	 0.0	 0.0	 0.0	 0.0	 0.0	 0.0	 0.0	 0.0;
	146	 184.0	 28.056	 35.0	 -15.0	 1.06	 100.0	 1	 184.0	 0.0	 0.0	 0.0	 0.0	 0.0	 0.0	 0.0	 0.0	 0.0	 0.0	 0.0	 0.0;
	147	 0.0	 -27.307	 100.0	 -50.0	 1.06	 100.0	 1	 237.0	 0.0	 0.0	 0.0	 0.0	 0.0	 0.0	 0.0	 0.0	 0.0	 0.0	 0.0	 0.0;
	149	 0.0	 36.599	 50.0	 -25.0	 1.06	 100.0	 1	 179.0	 0.0	 0.0	 0.0	 0.0	 0.0	 0.0	 0.0	 0.0	 0.0	 0.0	 0.0	 0.0;
	152	 0.0	 -50.0	 175.0	 -50.0	 1.05793	 100.0	 1	 389.0	 0.0	 0.0	 0.0	 0.0	 0.0	 0.0	 0.0	 0.0	 0.0	 0.0	 0.0	 0.0;
	153	 268.532	 -37.642	 90.0	 -50.0	 1.05876	 100.0	 1	 330.0	 0.0	 0.0	 0.0	 0.0	 0.0	 0.0	 0.0	 0.0	 0.0	 0.0	 0.0	 0.0;
	156	 0.0	 14.955	 15.0	 -10.0	 0.99183	 100.0	 1	 0.0	 0.0	 0.0	 0.0	 0.0	 0.0	 0.0	 0.0	 0.0	 0.0	 0.0	 0.0	 0.0;
	170	 201.583	 90.0	 90.0	 -40.0	 0.94	 100.0	 1	 542.0	 0.0	 0.0	 0.0	 0.0	 0.0	 0.0	 0.0	 0.0	 0.0	 0.0	 0.0	 0.0;
	171	 0.0	 150.0	 150.0	 -50.0	 0.98619	 100.0	 1	 0.0	 0.0	 0.0	 0.0	 0.0	 0.0	 0.0	 0.0	 0.0	 0.0	 0.0	 0.0	 0.0;
	176	 208.818	 52.269	 90.0	 -45.0	 1.06	 100.0	 1	 400.0	 0.0	 0.0	 0.0	 0.0	 0.0	 0.0	 0.0	 0.0	 0.0	 0.0	 0.0	 0.0;
	177	 24.706	 35.0	 35.0	 -15.0	 1.00726	 100.0	 1	 270.0	 0.0	 0.0	 0.0	 0.0	 0.0	 0.0	 0.0	 0.0	 0.0	 0.0	 0.0	 0.0;
	185	 432.0	 46.333	 80.0	 -50.0	 1.06	 100.0	 1	 432.0	 0.0	 0.0	 0.0	 0.0	 0.0	 0.0	 0.0	 0.0	 0.0	 0.0	 0.0	 0.0;
	186	 1301.0	 168.347	 400.0	 -100.0	 1.06	 100.0	 1	 1301.0	 0.0	 0.0	 0.0	 0.0	 0.0	 0.0	 0.0	 0.0	 0.0	 0.0	 0.0	 0.0;
	187	 1424.0	 185.801	 400.0	 -100.0	 1.06	 100.0	 1	 1424.0	 0.0	 0.0	 0.0	 0.0	 0.0	 0.0	 0.0	 0.0	 0.0	 0.0	 0.0	 0.0;
	190	 0.0	 -165.345	 276.0	 -276.0	 1.04977	 100.0	 1	 551.0	 0.0	 0.0	 0.0	 0.0	 0.0	 0.0	 0.0	 0.0	 0.0	 0.0	 0.0	 0.0;
	191	 1488.647	 389.526	 1000.0	 -1000.0	 1.04056	 100.0	 1	 2087.0	 0.0	 0.0	 0.0	 0.0	 0.0	 0.0	 0.0	 0.0	 0.0	 0.0	 0.0	 0.0;
	198	 98.316	 187.656	 229.0	 -229.0	 1.04626	 100.0	 1	 457.0	 0.0	 0.0	 0.0	 0.0	 0.0	 0.0	 0.0	 0.0	 0.0	 0.0	 0.0	 0.0;
	213	 440.0	 85.74	 150.0	 -150.0	 1.06	 100.0	 1	 440.0	 0.0	 0.0	 0.0	 0.0	 0.0	 0.0	 0.0	 0.0	 0.0	 0.0	 0.0	 0.0;
	220	 313.0	 60.0	 60.0	 -60.0	 1.04666	 100.0	 1	 313.0	 0.0	 0.0	 0.0	 0.0	 0.0	 0.0	 0.0	 0.0	 0.0	 0.0	 0.0	 0.0;
	221	 566.0	 283.0	 283.0	 -283.0	 1.05354	 100.0	 1	 566.0	 0.0	 0.0	 0.0	 0.0	 0.0	 0.0	 0.0	 0.0	 0.0	 0.0	 0.0	 0.0;
	222	 292.0	 68.377	 146.0	 -146.0	 1.0005	 100.0	 1	 292.0	 0.0	 0.0	 0.0	 0.0	 0.0	 0.0	 0.0	 0.0	 0.0	 0.0	 0.0	 0.0;
	227	 400.0	 200.0	 200.0	 -200.0	 0.97072	 100.0	 1	 400.0	 0.0	 0.0	 0.0	 0.0	 0.0	 0.0	 0.0	 0.0	 0.0	 0.0	 0.0	 0.0;
	230	 0.0	 39.383	 229.0	 -229.0	 1.05048	 100.0	 1	 457.0	 0.0	 0.0	 0.0	 0.0	 0.0	 0.0	 0.0	 0.0	 0.0	 0.0	 0.0	 0.0;
	233	 1005.923	 272.942	 500.0	 -500.0	 1.04079	 100.0	 1	 1259.0	 0.0	 0.0	 0.0	 0.0	 0.0	 0.0	 0.0	 0.0	 0.0	 0.0	 0.0	 0.0;
	236	 603.0	 300.0	 300.0	 -300.0	 1.03198	 100.0	 1	 603.0	 0.0	 0.0	 0.0	 0.0	 0.0	 0.0	 0.0	 0.0	 0.0	 0.0	 0.0	 0.0;
	238	 281.0	 141.0	 141.0	 -141.0	 1.04939	 100.0	 1	 281.0	 0.0	 0.0	 0.0	 0.0	 0.0	 0.0	 0.0	 0.0	 0.0	 0.0	 0.0	 0.0;
	239	 656.0	 217.104	 328.0	 -328.0	 1.06	 100.0	 1	 656.0	 0.0	 0.0	 0.0	 0.0	 0.0	 0.0	 0.0	 0.0	 0.0	 0.0	 0.0	 0.0;
	241	 594.0	 -246.057	 297.0	 -297.0	 1.01578	 100.0	 1	 594.0	 0.0	 0.0	 0.0	 0.0	 0.0	 0.0	 0.0	 0.0	 0.0	 0.0	 0.0	 0.0;
	242	 293.0	 100.0	 100.0	 40.0	 1.03681	 100.0	 1	 293.0	 0.0	 0.0	 0.0	 0.0	 0.0	 0.0	 0.0	 0.0	 0.0	 0.0	 0.0	 0.0;
	243	 77.081	 49.0	 49.0	 40.0	 1.04582	 100.0	 1	 98.0	 0.0	 0.0	 0.0	 0.0	 0.0	 0.0	 0.0	 0.0	 0.0	 0.0	 0.0	 0.0;
	7001	 1084.0	 210.0	 210.0	 -210.0	 1.0336	 100.0	 1	 1084.0	 0.0	 0.0	 0.0	 0.0	 0.0	 0.0	 0.0	 0.0	 0.0	 0.0	 0.0	 0.0;
	7002	 814.0	 122.052	 280.0	 -280.0	 1.06	 100.0	 1	 814.0	 0.0	 0.0	 0.0	 0.0	 0.0	 0.0	 0.0	 0.0	 0.0	 0.0	 0.0	 0.0;
	7003	 57.208	 420.0	 420.0	 -420.0	 1.0514	 100.0	 1	 1798.0	 0.0	 0.0	 0.0	 0.0	 0.0	 0.0	 0.0	 0.0	 0.0	 0.0	 0.0	 0.0;
	7011	 0.0	 100.0	 100.0	 -100.0	 1.02381	 100.0	 1	 338.0	 0.0	 0.0	 0.0	 0.0	 0.0	 0.0	 0.0	 0.0	 0.0	 0.0	 0.0	 0.0;
	7012	 382.0	 191.0	 191.0	 -191.0	 1.05674	 100.0	 1	 382.0	 0.0	 0.0	 0.0	 0.0	 0.0	 0.0	 0.0	 0.0	 0.0	 0.0	 0.0	 0.0;
	7017	 461.0	 231.0	 231.0	 0.0	 1.02213	 100.0	 1	 461.0	 0.0	 0.0	 0.0	 0.0	 0.0	 0.0	 0.0	 0.0	 0.0	 0.0	 0.0	 0.0;
	7023	 202.0	 4.178	 101.0	 0.0	 1.06	 100.0	 1	 202.0	 0.0	 0.0	 0.0	 0.0	 0.0	 0.0	 0.0	 0.0	 0.0	 0.0	 0.0	 0.0;
	7024	 10.743	 129.438	 224.0	 -224.0	 1.06	 100.0	 1	 503.0	 0.0	 0.0	 0.0	 0.0	 0.0	 0.0	 0.0	 0.0	 0.0	 0.0	 0.0	 0.0;
	7039	 534.0	 69.785	 200.0	 -200.0	 1.0314	 100.0	 1	 534.0	 0.0	 0.0	 0.0	 0.0	 0.0	 0.0	 0.0	 0.0	 0.0	 0.0	 0.0	 0.0;
	7044	 43.0	 22.0	 22.0	 0.0	 1.00226	 100.0	 1	 43.0	 0.0	 0.0	 0.0	 0.0	 0.0	 0.0	 0.0	 0.0	 0.0	 0.0	 0.0	 0.0;
	7049	 538.755	 10.0	 10.0	 0.0	 1.04237	 100.0	 1	 1366.0	 0.0	 0.0	 0.0	 0.0	 0.0	 0.0	 0.0	 0.0	 0.0	 0.0	 0.0	 0.0;
	7055	 0.0	 25.0	 25.0	 0.0	 1.00508	 100.0	 1	 63.0	 0.0	 0.0	 0.0	 0.0	 0.0	 0.0	 0.0	 0.0	 0.0	 0.0	 0.0	 0.0;
	7057	 92.414	 84.0	 84.0	 -84.0	 1.0307	 100.0	 1	 167.0	 0.0	 0.0	 0.0	 0.0	 0.0	 0.0	 0.0	 0.0	 0.0	 0.0	 0.0	 0.0;
	7061	 451.0	 147.838	 150.0	 -150.0	 1.06	 100.0	 1	 451.0	 0.0	 0.0	 0.0	 0.0	 0.0	 0.0	 0.0	 0.0	 0.0	 0.0	 0.0	 0.0;
	7062	 231.153	 150.0	 150.0	 0.0	 1.03454	 100.0	 1	 583.0	 0.0	 0.0	 0.0	 0.0	 0.0	 0.0	 0.0	 0.0	 0.0	 0.0	 0.0	 0.0;
	7071	 308.0	 87.0	 87.0	 0.0	 1.00656	 100.0	 1	 308.0	 0.0	 0.0	 0.0	 0.0	 0.0	 0.0	 0.0	 0.0	 0.0	 0.0	 0.0	 0.0;
	7130	 1354.0	 329.026	 600.0	 -100.0	 1.06	 100.0	 1	 1354.0	 0.0	 0.0	 0.0	 0.0	 0.0	 0.0	 0.0	 0.0	 0.0	 0.0	 0.0	 0.0;
	7139	 946.0	 325.0	 325.0	 -125.0	 1.04935	 100.0	 1	 946.0	 0.0	 0.0	 0.0	 0.0	 0.0	 0.0	 0.0	 0.0	 0.0	 0.0	 0.0	 0.0;
	7166	 424.502	 58.285	 280.0	 -200.0	 1.02187	 100.0	 1	 559.0	 0.0	 0.0	 0.0	 0.0	 0.0	 0.0	 0.0	 0.0	 0.0	 0.0	 0.0	 0.0;
	9002	 0.0	 2.0	 2.0	 -2.0	 1.00382	 100.0	 1	 0.0	 0.0	 0.0	 0.0	 0.0	 0.0	 0.0	 0.0	 0.0	 0.0	 0.0	 0.0	 0.0;
	9051	 0.0	 17.35	 17.35	 -17.35	 1.02728	 100.0	 1	 0.0	 0.0	 0.0	 0.0	 0.0	 0.0	 0.0	 0.0	 0.0	 0.0	 0.0	 0.0	 0.0;
	9053	 0.0	 12.83	 12.83	 -12.8	 1.01495	 100.0	 1	 0.0	 0.0	 0.0	 0.0	 0.0	 0.0	 0.0	 0.0	 0.0	 0.0	 0.0	 0.0	 0.0;
	9054	 63.773	 38.0	 38.0	 -38.0	 1.03013	 100.0	 1	 174.0	 0.0	 0.0	 0.0	 0.0	 0.0	 0.0	 0.0	 0.0	 0.0	 0.0	 0.0	 0.0;
	9055	 16.399	 6.0	 6.0	 -6.0	 1.01725	 100.0	 1	 22.0	 0.0	 0.0	 0.0	 0.0	 0.0	 0.0	 0.0	 0.0	 0.0	 0.0	 0.0	 0.0;
];

%% generator cost data
%	2	startup	shutdown	n	c(n-1)	...	c0
mpc.gencost = [
	2	 0.0	 0.0	 3	   0.000000	   0.000000	   0.000000;
	2	 0.0	 0.0	 3	   0.000000	   0.000000	   0.000000;
	2	 0.0	 0.0	 3	   0.000000	   0.000000	   0.000000;
	2	 0.0	 0.0	 3	   0.000000	   0.000000	   0.000000;
	2	 0.0	 0.0	 3	   0.000000	   0.000000	   0.000000;
	2	 0.0	 0.0	 3	   0.000000	   0.862937	   0.000000;
	2	 0.0	 0.0	 3	   0.000000	   1.145219	   0.000000;
	2	 0.0	 0.0	 3	   0.000000	   0.855144	   0.000000;
	2	 0.0	 0.0	 3	   0.000000	   0.623184	   0.000000;
	2	 0.0	 0.0	 3	   0.000000	   0.436942	   0.000000;
	2	 0.0	 0.0	 3	   0.000000	   0.860739	   0.000000;
	2	 0.0	 0.0	 3	   0.000000	   1.165277	   0.000000;
	2	 0.0	 0.0	 3	   0.000000	   0.000000	   0.000000;
	2	 0.0	 0.0	 3	   0.000000	   0.000000	   0.000000;
	2	 0.0	 0.0	 3	   0.000000	   0.736240	   0.000000;
	2	 0.0	 0.0	 3	   0.000000	   0.518890	   0.000000;
	2	 0.0	 0.0	 3	   0.000000	   0.950470	   0.000000;
	2	 0.0	 0.0	 3	   0.000000	   1.035443	   0.000000;
	2	 0.0	 0.0	 3	   0.000000	   1.000865	   0.000000;
	2	 0.0	 0.0	 3	   0.000000	   1.205069	   0.000000;
	2	 0.0	 0.0	 3	   0.000000	   1.006003	   0.000000;
	2	 0.0	 0.0	 3	   0.000000	   0.000000	   0.000000;
	2	 0.0	 0.0	 3	   0.000000	   1.296830	   0.000000;
	2	 0.0	 0.0	 3	   0.000000	   0.000000	   0.000000;
	2	 0.0	 0.0	 3	   0.000000	   0.881521	   0.000000;
	2	 0.0	 0.0	 3	   0.000000	   1.077258	   0.000000;
	2	 0.0	 0.0	 3	   0.000000	   0.881766	   0.000000;
	2	 0.0	 0.0	 3	   0.000000	   0.680561	   0.000000;
	2	 0.0	 0.0	 3	   0.000000	   0.525815	   0.000000;
	2	 0.0	 0.0	 3	   0.000000	   6.589820	   0.000000;
	2	 0.0	 0.0	 3	   0.000000	   0.238746	   0.000000;
	2	 0.0	 0.0	 3	   0.000000	   1.296577	   0.000000;
	2	 0.0	 0.0	 3	   0.000000	   0.766488	   0.000000;
	2	 0.0	 0.0	 3	   0.000000	   1.189872	   0.000000;
	2	 0.0	 0.0	 3	   0.000000	   0.793755	   0.000000;
	2	 0.0	 0.0	 3	   0.000000	   1.151968	   0.000000;
	2	 0.0	 0.0	 3	   0.000000	   0.967289	   0.000000;
	2	 0.0	 0.0	 3	   0.000000	   1.351678	   0.000000;
	2	 0.0	 0.0	 3	   0.000000	   1.092796	   0.000000;
	2	 0.0	 0.0	 3	   0.000000	   0.717838	   0.000000;
	2	 0.0	 0.0	 3	   0.000000	   0.816196	   0.000000;
	2	 0.0	 0.0	 3	   0.000000	   0.829873	   0.000000;
	2	 0.0	 0.0	 3	   0.000000	   0.965277	   0.000000;
	2	 0.0	 0.0	 3	   0.000000	   1.026426	   0.000000;
	2	 0.0	 0.0	 3	   0.000000	   1.162522	   0.000000;
	2	 0.0	 0.0	 3	   0.000000	   0.464375	   0.000000;
	2	 0.0	 0.0	 3	   0.000000	   0.643629	   0.000000;
	2	 0.0	 0.0	 3	   0.000000	   0.979373	   0.000000;
	2	 0.0	 0.0	 3	   0.000000	   1.101765	   0.000000;
	2	 0.0	 0.0	 3	   0.000000	   0.668355	   0.000000;
	2	 0.0	 0.0	 3	   0.000000	   0.963298	   0.000000;
	2	 0.0	 0.0	 3	   0.000000	   0.910148	   0.000000;
	2	 0.0	 0.0	 3	   0.000000	   1.070991	   0.000000;
	2	 0.0	 0.0	 3	   0.000000	   0.440401	   0.000000;
	2	 0.0	 0.0	 3	   0.000000	   0.698679	   0.000000;
	2	 0.0	 0.0	 3	   0.000000	   0.220280	   0.000000;
	2	 0.0	 0.0	 3	   0.000000	   6.638181	   0.000000;
	2	 0.0	 0.0	 3	   0.000000	   1.151176	   0.000000;
	2	 0.0	 0.0	 3	   0.000000	   0.798996	   0.000000;
	2	 0.0	 0.0	 3	   0.000000	   0.940150	   0.000000;
	2	 0.0	 0.0	 3	   0.000000	   1.021886	   0.000000;
	2	 0.0	 0.0	 3	   0.000000	   0.200801	   0.000000;
	2	 0.0	 0.0	 3	   0.000000	   0.668946	   0.000000;
	2	 0.0	 0.0	 3	   0.000000	   0.977695	   0.000000;
	2	 0.0	 0.0	 3	   0.000000	   0.000000	   0.000000;
	2	 0.0	 0.0	 3	   0.000000	   0.000000	   0.000000;
	2	 0.0	 0.0	 3	   0.000000	   0.000000	   0.000000;
	2	 0.0	 0.0	 3	   0.000000	   1.139101	   0.000000;
	2	 0.0	 0.0	 3	   0.000000	   0.887970	   0.000000;
];

%% branch data
%	fbus	tbus	r	x	b	rateA	rateB	rateC	ratio	angle	status	angmin	angmax
mpc.branch = [
	37	 9001	 6e-05	 0.00046	 0.0	 9900.0	 63230.0	 75.0	 1.0082	 0.0	 1	 -15.630007	 15.630007;
	9001	 9005	 0.0008	 0.00348	 0.0	 8215.0	 8215.0	 8215.0	 0.0	 0.0	 1	 -15.630007	 15.630007;
	9001	 9006	 0.02439	 0.43682	 0.0	 68.0	 68.0	 68.0	 0.9668	 0.0	 1	 -15.630007	 15.630007;
	9001	 9012	 0.03624	 0.64898	 0.0	 46.0	 46.0	 46.0	 0.9796	 0.0	 1	 -15.630007	 15.630007;
	9005	 9051	 0.01578	 0.37486	 0.0	 79.0	 79.0	 79.0	 1.0435	 0.0	 1	 -15.630007	 15.630007;
	9005	 9052	 0.01578	 0.37486	 0.0	 79.0	 79.0	 79.0	 0.9391	 0.0	 1	 -15.630007	 15.630007;
	9005	 9053	 0.01602	 0.38046	 0.0	 78.0	 78.0	 78.0	 1.0435	 0.0	 1	 -15.630007	 15.630007;
	9005	 9054	 0.0	 0.152	 0.0	 193.0	 193.0	 193.0	 1.0435	 0.0	 1	 -15.630007	 15.630007;
	9005	 9055	 0.0	 0.8	 0.0	 37.0	 37.0	 37.0	 1.0435	 0.0	 1	 -15.630007	 15.630007;
	9006	 9007	 0.05558	 0.24666	 0.0	 117.0	 117.0	 117.0	 0.0	 0.0	 1	 -15.630007	 15.630007;
	9006	 9003	 0.11118	 0.49332	 0.0	 59.0	 59.0	 59.0	 0.0	 0.0	 1	 -15.630007	 15.630007;
	9006	 9003	 0.11118	 0.49332	 0.0	 59.0	 59.0	 59.0	 0.0	 0.0	 1	 -15.630007	 15.630007;
	9012	 9002	 0.07622	 0.43286	 0.0	 67.0	 67.0	 67.0	 0.0	 0.0	 1	 -15.630007	 15.630007;
	9012	 9002	 0.07622	 0.43286	 0.0	 67.0	 67.0	 67.0	 0.0	 0.0	 1	 -15.630007	 15.630007;
	9002	 9021	 0.0537	 0.07026	 0.0	 332.0	 332.0	 332.0	 0.0	 0.0	 1	 -15.630007	 15.630007;
	9021	 9023	 1.1068	 0.95278	 0.0	 21.0	 21.0	 21.0	 0.0	 0.0	 1	 -15.630007	 15.630007;
	9021	 9022	 0.44364	 2.8152	 0.0	 11.0	 11.0	 11.0	 1.0	 0.0	 1	 -15.630007	 15.630007;
	9002	 9024	 0.50748	 3.2202	 0.0	 9.0	 9.0	 9.0	 1.0	 0.0	 1	 -15.630007	 15.630007;
	9023	 9025	 0.66688	 3.944	 0.0	 8.0	 8.0	 8.0	 1.0	 0.0	 1	 -15.630007	 15.630007;
	9023	 9026	 0.6113	 3.6152	 0.0	 8.0	 8.0	 8.0	 1.0	 0.0	 1	 -15.630007	 15.630007;
	9007	 9071	 0.4412	 2.9668	 0.0	 10.0	 10.0	 10.0	 1.0	 0.0	 1	 -15.630007	 15.630007;
	9007	 9072	 0.30792	 2.057	 0.0	 15.0	 15.0	 15.0	 1.0	 0.0	 1	 -15.630007	 15.630007;
	9007	 9003	 0.0558	 0.24666	 0.0	 116.0	 116.0	 116.0	 0.0	 0.0	 1	 -15.630007	 15.630007;
	9003	 9031	 0.73633	 4.6724	 0.0	 7.0	 7.0	 7.0	 1.0	 0.0	 1	 -15.630007	 15.630007;
	9003	 9032	 0.76978	 4.8846	 0.0	 6.0	 6.0	 6.0	 1.0	 0.0	 1	 -15.630007	 15.630007;
	9003	 9033	 0.75732	 4.8056	 0.0	 7.0	 7.0	 7.0	 1.0	 0.0	 1	 -15.630007	 15.630007;
	9003	 9044	 0.07378	 0.06352	 0.0	 302.0	 302.0	 302.0	 0.0	 0.0	 1	 -15.630007	 15.630007;
	9044	 9004	 0.03832	 0.02894	 0.0	 611.0	 611.0	 611.0	 0.0	 0.0	 1	 -15.630007	 15.630007;
	9004	 9041	 0.36614	 2.456	 0.0	 12.0	 12.0	 12.0	 1.0	 0.0	 1	 -15.630007	 15.630007;
	9004	 9042	 1.0593	 5.4536	 0.0	 6.0	 6.0	 6.0	 1.0	 0.0	 1	 -15.630007	 15.630007;
	9004	 9043	 0.1567	 1.6994	 0.0	 18.0	 18.0	 18.0	 1.0	 0.0	 1	 -15.630007	 15.630007;
	9003	 9034	 0.13006	 1.3912	 0.0	 21.0	 21.0	 21.0	 1.0	 0.0	 1	 -15.630007	 15.630007;
	9003	 9035	 0.54484	 3.4572	 0.0	 9.0	 9.0	 9.0	 1.0	 0.0	 1	 -15.630007	 15.630007;
	9003	 9036	 0.15426	 1.6729	 0.0	 18.0	 18.0	 18.0	 1.0	 0.0	 1	 -15.630007	 15.630007;
	9003	 9037	 0.3849	 2.5712	 0.0	 12.0	 12.0	 12.0	 1.0	 0.0	 1	 -15.630007	 15.630007;
	9003	 9038	 0.4412	 2.9668	 0.0	 10.0	 10.0	 10.0	 1.0	 0.0	 1	 -15.630007	 15.630007;
	9012	 9121	 0.23552	 0.99036	 0.0	 29.0	 29.0	 29.0	 0.0	 0.0	 1	 -15.630007	 15.630007;
	9053	 9533	 0.0	 0.75	 0.0	 40.0	 40.0	 40.0	 0.9583	 0.0	 1	 -15.630007	 15.630007;
	1	 5	 0.001	 0.006	 0.0	 4823.0	 4823.0	 4823.0	 0.0	 0.0	 1	 -15.630007	 15.630007;
	2	 6	 0.001	 0.009	 0.0	 3240.0	 3240.0	 3240.0	 0.0	 0.0	 1	 -15.630007	 15.630007;
	2	 8	 0.006	 0.027	 0.054	 1061.0	 1061.0	 1061.0	 0.0	 0.0	 1	 -15.630007	 15.630007;
	3	 7	 0.0	 0.003	 0.0	 9778.0	 9778.0	 9778.0	 0.0	 0.0	 1	 -15.630007	 15.630007;
	3	 19	 0.008	 0.069	 0.139	 423.0	 423.0	 423.0	 0.0	 0.0	 1	 -15.630007	 15.630007;
	3	 150	 0.001	 0.007	 0.0	 4149.0	 4149.0	 4149.0	 0.0	 0.0	 1	 -15.630007	 15.630007;
	4	 16	 0.002	 0.019	 1.127	 1536.0	 1536.0	 1536.0	 0.0	 0.0	 1	 -15.630007	 15.630007;
	5	 9	 0.006	 0.029	 0.018	 991.0	 991.0	 991.0	 0.0	 0.0	 1	 -15.630007	 15.630007;
	7	 12	 0.001	 0.009	 0.07	 3240.0	 3240.0	 3240.0	 0.0	 0.0	 1	 -15.630007	 15.630007;
	7	 131	 0.001	 0.007	 0.014	 4149.0	 4149.0	 4149.0	 0.0	 0.0	 1	 -15.630007	 15.630007;
	8	 11	 0.013	 0.0595	 0.033	 482.0	 482.0	 482.0	 0.0	 0.0	 1	 -15.630007	 15.630007;
	8	 14	 0.013	 0.042	 0.081	 668.0	 668.0	 668.0	 0.0	 0.0	 1	 -15.630007	 15.630007;
	9	 11	 0.006	 0.027	 0.013	 1061.0	 1061.0	 1061.0	 0.0	 0.0	 1	 -15.630007	 15.630007;
	11	 13	 0.008	 0.034	 0.018	 840.0	 840.0	 840.0	 0.0	 0.0	 1	 -15.630007	 15.630007;
	12	 21	 0.002	 0.015	 0.118	 1939.0	 1939.0	 1939.0	 0.0	 0.0	 1	 -15.630007	 15.630007;
	13	 20	 0.006	 0.034	 0.016	 850.0	 850.0	 850.0	 0.0	 0.0	 1	 -15.630007	 15.630007;
	14	 15	 0.014	 0.042	 0.097	 663.0	 663.0	 663.0	 0.0	 0.0	 1	 -15.630007	 15.630007;
	15	 37	 0.065	 0.248	 0.121	 115.0	 115.0	 115.0	 0.0	 0.0	 1	 -15.630007	 15.630007;
	15	 89	 0.099	 0.248	 0.035	 110.0	 110.0	 110.0	 0.0	 0.0	 1	 -15.630007	 15.630007;
	15	 90	 0.096	 0.363	 0.048	 79.0	 79.0	 79.0	 0.0	 0.0	 1	 -15.630007	 15.630007;
	16	 42	 0.002	 0.022	 1.28	 1328.0	 1328.0	 1328.0	 0.0	 0.0	 1	 -15.630007	 15.630007;
	19	 21	 0.002	 0.018	 0.036	 1620.0	 1620.0	 1620.0	 0.0	 0.0	 1	 -15.630007	 15.630007;
	19	 87	 0.013	 0.08	 0.151	 362.0	 362.0	 362.0	 0.0	 0.0	 1	 -15.630007	 15.630007;
	20	 22	 0.016	 0.033	 0.015	 800.0	 800.0	 800.0	 0.0	 0.0	 1	 -15.630007	 15.630007;
	20	 27	 0.069	 0.186	 0.098	 148.0	 148.0	 148.0	 0.0	 0.0	 1	 -15.630007	 15.630007;
	21	 24	 0.004	 0.034	 0.28	 857.0	 857.0	 857.0	 0.0	 0.0	 1	 -15.630007	 15.630007;
	22	 23	 0.052	 0.111	 0.05	 240.0	 240.0	 240.0	 0.0	 0.0	 1	 -15.630007	 15.630007;
	23	 25	 0.019	 0.039	 0.018	 677.0	 677.0	 677.0	 0.0	 0.0	 1	 -15.630007	 15.630007;
	24	 319	 0.007	 0.068	 0.134	 430.0	 430.0	 430.0	 0.0	 0.0	 1	 -15.630007	 15.630007;
	25	 26	 0.036	 0.071	 0.034	 369.0	 369.0	 369.0	 0.0	 0.0	 1	 -15.630007	 15.630007;
	26	 27	 0.045	 0.12	 0.065	 229.0	 229.0	 229.0	 0.0	 0.0	 1	 -15.630007	 15.630007;
	26	 320	 0.043	 0.13	 0.014	 215.0	 215.0	 215.0	 0.0	 0.0	 1	 -15.630007	 15.630007;
	33	 34	 0.0	 0.063	 0.0	 466.0	 466.0	 466.0	 0.0	 0.0	 1	 -15.630007	 15.630007;
	33	 38	 0.0025	 0.012	 0.013	 2393.0	 2393.0	 2393.0	 0.0	 0.0	 1	 -15.630007	 15.630007;
	33	 40	 0.006	 0.029	 0.02	 991.0	 991.0	 991.0	 0.0	 0.0	 1	 -15.630007	 15.630007;
	33	 41	 0.007	 0.043	 0.026	 674.0	 674.0	 674.0	 0.0	 0.0	 1	 -15.630007	 15.630007;
	34	 42	 0.001	 0.008	 0.042	 3639.0	 3639.0	 3639.0	 0.0	 0.0	 1	 -15.630007	 15.630007;
	35	 72	 0.012	 0.06	 0.008	 480.0	 480.0	 480.0	 0.0	 0.0	 1	 -15.630007	 15.630007;
	35	 76	 0.006	 0.014	 0.002	 1926.0	 1926.0	 1926.0	 0.0	 0.0	 1	 -15.630007	 15.630007;
	35	 77	 0.01	 0.029	 0.003	 957.0	 957.0	 957.0	 0.0	 0.0	 1	 -15.630007	 15.630007;
	36	 88	 0.004	 0.027	 0.043	 1075.0	 1075.0	 1075.0	 0.0	 0.0	 1	 -15.630007	 15.630007;
	37	 38	 0.008	 0.047	 0.008	 616.0	 616.0	 616.0	 0.0	 0.0	 1	 -15.630007	 15.630007;
	37	 40	 0.022	 0.064	 0.007	 434.0	 434.0	 434.0	 0.0	 0.0	 1	 -15.630007	 15.630007;
	37	 41	 0.01	 0.036	 0.02	 786.0	 786.0	 786.0	 0.0	 0.0	 1	 -15.630007	 15.630007;
	37	 49	 0.017	 0.081	 0.048	 355.0	 355.0	 355.0	 0.0	 0.0	 1	 -15.630007	 15.630007;
	37	 89	 0.102	 0.254	 0.033	 108.0	 108.0	 108.0	 0.0	 0.0	 1	 -15.630007	 15.630007;
	37	 90	 0.047	 0.127	 0.016	 217.0	 217.0	 217.0	 0.0	 0.0	 1	 -15.630007	 15.630007;
	38	 41	 0.008	 0.037	 0.02	 775.0	 775.0	 775.0	 0.0	 0.0	 1	 -15.630007	 15.630007;
	38	 43	 0.032	 0.087	 0.04	 317.0	 317.0	 317.0	 0.0	 0.0	 1	 -15.630007	 15.630007;
	39	 42	 0.0006	 0.0064	 0.404	 4564.0	 4564.0	 4564.0	 0.0	 0.0	 1	 -15.630007	 15.630007;
	40	 48	 0.026	 0.154	 0.022	 188.0	 188.0	 188.0	 0.0	 0.0	 1	 -15.630007	 15.630007;
	41	 42	 0.0	 0.029	 0.0	 1012.0	 1012.0	 1012.0	 0.0	 0.0	 1	 -15.630007	 15.630007;
	41	 49	 0.065	 0.191	 0.02	 146.0	 146.0	 146.0	 0.0	 0.0	 1	 -15.630007	 15.630007;
	41	 51	 0.031	 0.089	 0.036	 312.0	 312.0	 312.0	 0.0	 0.0	 1	 -15.630007	 15.630007;
	42	 46	 0.002	 0.014	 0.806	 2075.0	 2075.0	 2075.0	 0.0	 0.0	 1	 -15.630007	 15.630007;
	43	 44	 0.026	 0.072	 0.035	 384.0	 384.0	 384.0	 0.0	 0.0	 1	 -15.630007	 15.630007;
	43	 48	 0.095	 0.262	 0.032	 106.0	 106.0	 106.0	 0.0	 0.0	 1	 -15.630007	 15.630007;
	43	 53	 0.013	 0.039	 0.016	 714.0	 714.0	 714.0	 0.0	 0.0	 1	 -15.630007	 15.630007;
	44	 47	 0.027	 0.084	 0.039	 333.0	 333.0	 333.0	 0.0	 0.0	 1	 -15.630007	 15.630007;
	44	 54	 0.028	 0.084	 0.037	 332.0	 332.0	 332.0	 0.0	 0.0	 1	 -15.630007	 15.630007;
	45	 60	 0.007	 0.041	 0.312	 706.0	 706.0	 706.0	 0.0	 0.0	 1	 -15.630007	 15.630007;
	45	 74	 0.009	 0.054	 0.411	 536.0	 536.0	 536.0	 0.0	 0.0	 1	 -15.630007	 15.630007;
	46	 81	 0.005	 0.042	 0.69	 694.0	 694.0	 694.0	 0.0	 0.0	 1	 -15.630007	 15.630007;
	47	 73	 0.052	 0.145	 0.073	 191.0	 191.0	 191.0	 0.0	 0.0	 1	 -15.630007	 15.630007;
	47	 113	 0.043	 0.118	 0.013	 234.0	 234.0	 234.0	 0.0	 0.0	 1	 -15.630007	 15.630007;
	48	 107	 0.025	 0.062	 0.007	 439.0	 439.0	 439.0	 0.0	 0.0	 1	 -15.630007	 15.630007;
	49	 51	 0.031	 0.094	 0.043	 297.0	 297.0	 297.0	 0.0	 0.0	 1	 -15.630007	 15.630007;
	51	 52	 0.037	 0.109	 0.049	 255.0	 255.0	 255.0	 0.0	 0.0	 1	 -15.630007	 15.630007;
	52	 55	 0.027	 0.08	 0.036	 348.0	 348.0	 348.0	 0.0	 0.0	 1	 -15.630007	 15.630007;
	53	 54	 0.025	 0.073	 0.035	 381.0	 381.0	 381.0	 0.0	 0.0	 1	 -15.630007	 15.630007;
	54	 55	 0.035	 0.103	 0.047	 270.0	 270.0	 270.0	 0.0	 0.0	 1	 -15.630007	 15.630007;
	55	 57	 0.065	 0.169	 0.082	 162.0	 162.0	 162.0	 0.0	 0.0	 1	 -15.630007	 15.630007;
	57	 58	 0.046	 0.08	 0.036	 318.0	 318.0	 318.0	 0.0	 0.0	 1	 -15.630007	 15.630007;
	57	 63	 0.159	 0.537	 0.071	 53.0	 53.0	 53.0	 0.0	 0.0	 1	 -15.630007	 15.630007;
	58	 59	 0.009	 0.026	 0.005	 1067.0	 1067.0	 1067.0	 0.0	 0.0	 1	 -15.630007	 15.630007;
	59	 61	 0.002	 0.013	 0.015	 2231.0	 2231.0	 2231.0	 0.0	 0.0	 1	 -15.630007	 15.630007;
	60	 62	 0.009	 0.065	 0.485	 447.0	 447.0	 447.0	 0.0	 0.0	 1	 -15.630007	 15.630007;
	62	 64	 0.016	 0.105	 0.203	 277.0	 277.0	 277.0	 0.0	 0.0	 1	 -15.630007	 15.630007;
	62	 144	 0.001	 0.007	 0.013	 4149.0	 4149.0	 4149.0	 0.0	 0.0	 1	 -15.630007	 15.630007;
	63	 526	 0.0265	 0.172	 0.026	 169.0	 169.0	 169.0	 0.0	 0.0	 1	 -15.630007	 15.630007;
	69	 211	 0.051	 0.232	 0.028	 124.0	 124.0	 124.0	 0.0	 0.0	 1	 -15.630007	 15.630007;
	69	 79	 0.051	 0.157	 0.023	 178.0	 178.0	 178.0	 0.0	 0.0	 1	 -15.630007	 15.630007;
	70	 71	 0.032	 0.1	 0.062	 280.0	 280.0	 280.0	 0.0	 0.0	 1	 -15.630007	 15.630007;
	70	 528	 0.02	 0.1234	 0.028	 235.0	 235.0	 235.0	 0.0	 0.0	 1	 -15.630007	 15.630007;
	71	 72	 0.036	 0.131	 0.068	 216.0	 216.0	 216.0	 0.0	 0.0	 1	 -15.630007	 15.630007;
	71	 73	 0.034	 0.099	 0.047	 281.0	 281.0	 281.0	 0.0	 0.0	 1	 -15.630007	 15.630007;
	72	 77	 0.018	 0.087	 0.011	 331.0	 331.0	 331.0	 0.0	 0.0	 1	 -15.630007	 15.630007;
	72	 531	 0.0256	 0.193	 0.0	 151.0	 151.0	 151.0	 0.0	 0.0	 1	 -15.630007	 15.630007;
	73	 76	 0.021	 0.057	 0.03	 483.0	 483.0	 483.0	 0.0	 0.0	 1	 -15.630007	 15.630007;
	73	 79	 0.018	 0.052	 0.018	 534.0	 534.0	 534.0	 0.0	 0.0	 1	 -15.630007	 15.630007;
	74	 88	 0.004	 0.027	 0.05	 1075.0	 1075.0	 1075.0	 0.0	 0.0	 1	 -15.630007	 15.630007;
	74	 562	 0.0286	 0.2013	 0.379	 145.0	 145.0	 145.0	 0.0	 0.0	 1	 -15.630007	 15.630007;
	76	 77	 0.016	 0.043	 0.004	 640.0	 640.0	 640.0	 0.0	 0.0	 1	 -15.630007	 15.630007;
	77	 78	 0.001	 0.006	 0.007	 4823.0	 4823.0	 4823.0	 0.0	 0.0	 1	 -15.630007	 15.630007;
	77	 80	 0.014	 0.07	 0.038	 411.0	 411.0	 411.0	 0.0	 0.0	 1	 -15.630007	 15.630007;
	77	 552	 0.0891	 0.2676	 0.029	 104.0	 104.0	 104.0	 0.0	 0.0	 1	 -15.630007	 15.630007;
	77	 609	 0.0782	 0.2127	 0.022	 130.0	 130.0	 130.0	 0.0	 0.0	 1	 -15.630007	 15.630007;
	78	 79	 0.006	 0.022	 0.011	 1287.0	 1287.0	 1287.0	 0.0	 0.0	 1	 -15.630007	 15.630007;
	78	 84	 0.0	 0.036	 0.0	 815.0	 815.0	 815.0	 0.0	 0.0	 1	 -15.630007	 15.630007;
	79	 211	 0.099	 0.375	 0.051	 76.0	 76.0	 76.0	 0.0	 0.0	 1	 -15.630007	 15.630007;
	80	 211	 0.022	 0.107	 0.058	 269.0	 269.0	 269.0	 0.0	 0.0	 1	 -15.630007	 15.630007;
	81	 194	 0.0035	 0.033	 0.53	 884.0	 884.0	 884.0	 0.0	 0.0	 1	 -15.630007	 15.630007;
	81	 195	 0.0035	 0.033	 0.53	 884.0	 884.0	 884.0	 0.0	 0.0	 1	 -15.630007	 15.630007;
	85	 86	 0.008	 0.064	 0.128	 455.0	 455.0	 455.0	 0.0	 0.0	 1	 -15.630007	 15.630007;
	86	 87	 0.012	 0.093	 0.183	 313.0	 313.0	 313.0	 0.0	 0.0	 1	 -15.630007	 15.630007;
	86	 323	 0.006	 0.048	 0.092	 607.0	 607.0	 607.0	 0.0	 0.0	 1	 -15.630007	 15.630007;
	89	 91	 0.047	 0.119	 0.014	 230.0	 230.0	 230.0	 0.0	 0.0	 1	 -15.630007	 15.630007;
	90	 92	 0.032	 0.174	 0.024	 166.0	 166.0	 166.0	 0.0	 0.0	 1	 -15.630007	 15.630007;
	91	 94	 0.1	 0.253	 0.031	 108.0	 108.0	 108.0	 0.0	 0.0	 1	 -15.630007	 15.630007;
	91	 97	 0.022	 0.077	 0.039	 367.0	 367.0	 367.0	 0.0	 0.0	 1	 -15.630007	 15.630007;
	92	 103	 0.019	 0.144	 0.017	 202.0	 202.0	 202.0	 0.0	 0.0	 1	 -15.630007	 15.630007;
	92	 105	 0.017	 0.092	 0.012	 314.0	 314.0	 314.0	 0.0	 0.0	 1	 -15.630007	 15.630007;
	94	 97	 0.278	 0.427	 0.043	 58.0	 58.0	 58.0	 0.0	 0.0	 1	 -15.630007	 15.630007;
	97	 100	 0.022	 0.053	 0.007	 512.0	 512.0	 512.0	 0.0	 0.0	 1	 -15.630007	 15.630007;
	97	 102	 0.038	 0.092	 0.012	 295.0	 295.0	 295.0	 0.0	 0.0	 1	 -15.630007	 15.630007;
	97	 103	 0.048	 0.122	 0.015	 224.0	 224.0	 224.0	 0.0	 0.0	 1	 -15.630007	 15.630007;
	98	 100	 0.024	 0.064	 0.007	 430.0	 430.0	 430.0	 0.0	 0.0	 1	 -15.630007	 15.630007;
	98	 102	 0.034	 0.121	 0.015	 234.0	 234.0	 234.0	 0.0	 0.0	 1	 -15.630007	 15.630007;
	99	 107	 0.053	 0.135	 0.017	 203.0	 203.0	 203.0	 0.0	 0.0	 1	 -15.630007	 15.630007;
	99	 108	 0.002	 0.004	 0.002	 6559.0	 6559.0	 6559.0	 0.0	 0.0	 1	 -15.630007	 15.630007;
	99	 109	 0.045	 0.354	 0.044	 83.0	 83.0	 83.0	 0.0	 0.0	 1	 -15.630007	 15.630007;
	99	 110	 0.05	 0.174	 0.022	 163.0	 163.0	 163.0	 0.0	 0.0	 1	 -15.630007	 15.630007;
	100	 102	 0.016	 0.038	 0.004	 712.0	 712.0	 712.0	 0.0	 0.0	 1	 -15.630007	 15.630007;
	102	 104	 0.043	 0.064	 0.027	 381.0	 381.0	 381.0	 0.0	 0.0	 1	 -15.630007	 15.630007;
	103	 105	 0.019	 0.062	 0.008	 453.0	 453.0	 453.0	 0.0	 0.0	 1	 -15.630007	 15.630007;
	104	 108	 0.076	 0.13	 0.044	 195.0	 195.0	 195.0	 0.0	 0.0	 1	 -15.630007	 15.630007;
	104	 322	 0.044	 0.124	 0.015	 223.0	 223.0	 223.0	 0.0	 0.0	 1	 -15.630007	 15.630007;
	105	 107	 0.012	 0.088	 0.011	 331.0	 331.0	 331.0	 0.0	 0.0	 1	 -15.630007	 15.630007;
	105	 110	 0.157	 0.4	 0.047	 69.0	 69.0	 69.0	 0.0	 0.0	 1	 -15.630007	 15.630007;
	108	 324	 0.074	 0.208	 0.026	 133.0	 133.0	 133.0	 0.0	 0.0	 1	 -15.630007	 15.630007;
	109	 110	 0.07	 0.184	 0.021	 149.0	 149.0	 149.0	 0.0	 0.0	 1	 -15.630007	 15.630007;
	109	 113	 0.1	 0.274	 0.031	 101.0	 101.0	 101.0	 0.0	 0.0	 1	 -15.630007	 15.630007;
	109	 114	 0.109	 0.393	 0.036	 72.0	 72.0	 72.0	 0.0	 0.0	 1	 -15.630007	 15.630007;
	110	 112	 0.142	 0.404	 0.05	 69.0	 69.0	 69.0	 0.0	 0.0	 1	 -15.630007	 15.630007;
	112	 114	 0.017	 0.042	 0.006	 648.0	 648.0	 648.0	 0.0	 0.0	 1	 -15.630007	 15.630007;
	115	 122	 0.0036	 0.0199	 0.004	 1451.0	 1451.0	 1451.0	 0.0	 0.0	 1	 -15.630007	 15.630007;
	116	 120	 0.002	 0.1049	 0.001	 280.0	 280.0	 280.0	 0.0	 0.0	 1	 -15.630007	 15.630007;
	117	 118	 0.0001	 0.0018	 0.017	 9900.0	 16271.0	 16271.0	 0.0	 0.0	 1	 -15.630007	 15.630007;
	118	 119	 0.0	 0.0271	 0.0	 1083.0	 1083.0	 1083.0	 0.0	 0.0	 1	 -15.630007	 15.630007;
	118	 1201	 0.0	 0.6163	 0.0	 48.0	 48.0	 48.0	 0.0	 0.0	 1	 -15.630007	 15.630007;
	1201	 120	 0.0	 -0.3697	 0.0	 80.0	 80.0	 80.0	 0.0	 0.0	 1	 -15.630007	 15.630007;
	118	 121	 0.0022	 0.2915	 0.0	 101.0	 101.0	 101.0	 0.0	 0.0	 1	 -15.630007	 15.630007;
	119	 120	 0.0	 0.0339	 0.0	 866.0	 866.0	 866.0	 0.0	 0.0	 1	 -15.630007	 15.630007;
	119	 121	 0.0	 0.0582	 0.0	 504.0	 504.0	 504.0	 0.0	 0.0	 1	 -15.630007	 15.630007;
	122	 123	 0.0808	 0.2344	 0.029	 119.0	 119.0	 119.0	 0.0	 0.0	 1	 -15.630007	 15.630007;
	122	 125	 0.0965	 0.3669	 0.054	 78.0	 78.0	 78.0	 0.0	 0.0	 1	 -15.630007	 15.630007;
	123	 124	 0.036	 0.1076	 0.117	 259.0	 259.0	 259.0	 0.0	 0.0	 1	 -15.630007	 15.630007;
	123	 125	 0.0476	 0.1414	 0.149	 197.0	 197.0	 197.0	 0.0	 0.0	 1	 -15.630007	 15.630007;
	125	 126	 0.0006	 0.0197	 0.0	 1489.0	 1489.0	 1489.0	 0.0	 0.0	 1	 -15.630007	 15.630007;
	126	 127	 0.0059	 0.0405	 0.25	 717.0	 717.0	 717.0	 0.0	 0.0	 1	 -15.630007	 15.630007;
	126	 129	 0.0115	 0.1106	 0.185	 264.0	 264.0	 264.0	 0.0	 0.0	 1	 -15.630007	 15.630007;
	126	 132	 0.0198	 0.1688	 0.321	 173.0	 173.0	 173.0	 0.0	 0.0	 1	 -15.630007	 15.630007;
	126	 157	 0.005	 0.05	 0.33	 584.0	 584.0	 584.0	 0.0	 0.0	 1	 -15.630007	 15.630007;
	126	 158	 0.0077	 0.0538	 0.335	 540.0	 540.0	 540.0	 0.0	 0.0	 1	 -15.630007	 15.630007;
	126	 169	 0.0165	 0.1157	 0.171	 251.0	 251.0	 251.0	 0.0	 0.0	 1	 -15.630007	 15.630007;
	127	 128	 0.0059	 0.0577	 0.095	 506.0	 506.0	 506.0	 0.0	 0.0	 1	 -15.630007	 15.630007;
	127	 134	 0.0049	 0.0336	 0.208	 864.0	 864.0	 864.0	 0.0	 0.0	 1	 -15.630007	 15.630007;
	127	 168	 0.0059	 0.0577	 0.095	 506.0	 506.0	 506.0	 0.0	 0.0	 1	 -15.630007	 15.630007;
	128	 130	 0.0078	 0.0773	 0.126	 378.0	 378.0	 378.0	 0.0	 0.0	 1	 -15.630007	 15.630007;
	128	 133	 0.0026	 0.0193	 0.03	 1507.0	 1507.0	 1507.0	 0.0	 0.0	 1	 -15.630007	 15.630007;
	129	 130	 0.0076	 0.0752	 0.122	 389.0	 389.0	 389.0	 0.0	 0.0	 1	 -15.630007	 15.630007;
	129	 133	 0.0021	 0.0186	 0.03	 1568.0	 1568.0	 1568.0	 0.0	 0.0	 1	 -15.630007	 15.630007;
...
];

% INFO    : === Translation Options ===
% INFO    : Phase Angle Bound:           15.630007 (deg.)
% INFO    : AC OPF Solution File:        ./nesta_case300_ieee__sad.m.opf.sol
% INFO    : 
% INFO    : === Voltage Setpoint Replacement Notes ===
% INFO    : Bus 1	: V=1.01481, theta=-0.39207 -> V=1.01481, theta=-0.37726
% INFO    : Bus 2	: V=1.04144, theta=-2.31217 -> V=1.04144, theta=-2.29791
% INFO    : Bus 3	: V=1.00932, theta=-6.02973 -> V=1.00932, theta=-6.01478
% INFO    : Bus 4	: V=1.04411, theta=-6.82201 -> V=1.04411, theta=-6.8082
% INFO    : Bus 5	: V=1.00647, theta=-3.03541 -> V=1.00647, theta=-3.02063
% INFO    : Bus 6	: V=1.03716, theta=-3.47267 -> V=1.03716, theta=-3.45828
% INFO    : Bus 7	: V=1.00338, theta=-6.05256 -> V=1.00338, theta=-6.03764
% INFO    : Bus 8	: V=1.01897, theta=-7.6301 -> V=1.01897, theta=-7.61661
% INFO    : Bus 9	: V=0.99503, theta=-7.82611 -> V=0.99503, theta=-7.81157
% INFO    : Bus 10	: V=1.02637, theta=-11.83422 -> V=1.02636, theta=-11.81961
% INFO    : Bus 11	: V=1.00502, theta=-10.95404 -> V=1.00502, theta=-10.93971
% INFO    : Bus 12	: V=1.00668, theta=-7.89461 -> V=1.00668, theta=-7.87982
% INFO    : Bus 13	: V=1.00307, theta=-14.63624 -> V=1.00307, theta=-14.62179
% INFO    : Bus 14	: V=1.00236, theta=-12.38396 -> V=1.00235, theta=-12.37233
% INFO    : Bus 15	: V=1.03136, theta=-13.76294 -> V=1.03136, theta=-13.75315
% INFO    : Bus 16	: V=1.04669, theta=-9.85277 -> V=1.04668, theta=-9.84326
% INFO    : Bus 17	: V=1.05221, theta=-15.0749 -> V=1.0522, theta=-15.06512
% INFO    : Bus 19	: V=0.99872, theta=-11.69065 -> V=0.99872, theta=-11.67637
% INFO    : Bus 20	: V=1.01405, theta=-17.15296 -> V=1.01405, theta=-17.13838
% INFO    : Bus 21	: V=0.98806, theta=-12.9833 -> V=0.98806, theta=-12.96869
% INFO    : Bus 22	: V=1.00963, theta=-17.58548 -> V=1.00963, theta=-17.57085
% INFO    : Bus 23	: V=1.06, theta=-14.71226 -> V=1.06, theta=-14.69745
% INFO    : Bus 24	: V=1.02471, theta=-15.08067 -> V=1.02471, theta=-15.06574
% INFO    : Bus 25	: V=1.03536, theta=-16.82217 -> V=1.03536, theta=-16.80738
% INFO    : Bus 26	: V=1.01321, theta=-19.2685 -> V=1.01321, theta=-19.25376
% INFO    : Bus 27	: V=0.9895, theta=-21.23654 -> V=0.9895, theta=-21.22186
% INFO    : Bus 33	: V=1.03382, theta=-14.4835 -> V=1.03382, theta=-14.47879
% INFO    : Bus 34	: V=1.05332, theta=-11.36791 -> V=1.05332, theta=-11.36347
% INFO    : Bus 35	: V=1.00588, theta=-22.25083 -> V=1.00587, theta=-22.25079
% INFO    : Bus 36	: V=1.03009, theta=-20.36914 -> V=1.03009, theta=-20.37343
% INFO    : Bus 37	: V=1.02874, theta=-13.47651 -> V=1.02874, theta=-13.47145
% INFO    : Bus 38	: V=1.02959, theta=-14.95114 -> V=1.02959, theta=-14.94645
% INFO    : Bus 39	: V=1.06, theta=-9.25329 -> V=1.06, theta=-9.24889
% INFO    : Bus 40	: V=1.03203, theta=-14.82627 -> V=1.03203, theta=-14.82125
% INFO    : Bus 41	: V=1.03655, theta=-13.0851 -> V=1.03655, theta=-13.08059
% INFO    : Bus 42	: V=1.05673, theta=-10.99795 -> V=1.05673, theta=-10.99353
% INFO    : Bus 43	: V=1.01632, theta=-18.47402 -> V=1.01631, theta=-18.46967
% INFO    : Bus 44	: V=1.02902, theta=-18.69049 -> V=1.029, theta=-18.68739
% INFO    : Bus 45	: V=1.04567, theta=-16.15531 -> V=1.04565, theta=-16.15286
% INFO    : Bus 46	: V=1.05456, theta=-13.8813 -> V=1.05455, theta=-13.88019
% INFO    : Bus 47	: V=1.00526, theta=-22.18572 -> V=1.00525, theta=-22.1829
% INFO    : Bus 48	: V=1.01758, theta=-15.51201 -> V=1.01757, theta=-15.50541
% INFO    : Bus 49	: V=1.04315, theta=-3.52351 -> V=1.04315, theta=-3.52239
% INFO    : Bus 51	: V=1.0254, theta=-10.44926 -> V=1.02541, theta=-10.44544
% INFO    : Bus 52	: V=1.00027, theta=-15.76925 -> V=1.00028, theta=-15.76307
% INFO    : Bus 53	: V=1.0117, theta=-19.5731 -> V=1.01169, theta=-19.56855
% INFO    : Bus 54	: V=1.02049, theta=-18.83364 -> V=1.02048, theta=-18.82867
% INFO    : Bus 55	: V=1.02103, theta=-17.30629 -> V=1.02103, theta=-17.29839
% INFO    : Bus 57	: V=1.04453, theta=-15.30056 -> V=1.04454, theta=-15.28447
% INFO    : Bus 58	: V=1.02616, theta=-11.54386 -> V=1.02616, theta=-11.52817
% INFO    : Bus 59	: V=1.0188, theta=-10.26207 -> V=1.0188, theta=-10.24652
% INFO    : Bus 60	: V=1.05435, theta=-12.38754 -> V=1.05432, theta=-12.38017
% INFO    : Bus 61	: V=1.03179, theta=-8.26579 -> V=1.03179, theta=-8.25031
% INFO    : Bus 62	: V=1.04695, theta=-6.20913 -> V=1.04694, theta=-6.194
% INFO    : Bus 63	: V=0.99647, theta=-22.2346 -> V=0.99646, theta=-22.21953
% INFO    : Bus 64	: V=0.98406, theta=-17.76206 -> V=0.98405, theta=-17.74698
% INFO    : Bus 69	: V=0.99293, theta=-24.65547 -> V=0.99295, theta=-24.6436
% INFO    : Bus 70	: V=0.98944, theta=-23.92878 -> V=0.98943, theta=-23.92861
% INFO    : Bus 71	: V=1.01559, theta=-19.02585 -> V=1.01558, theta=-19.02557
% INFO    : Bus 72	: V=1.00074, theta=-22.39478 -> V=1.00073, theta=-22.39412
% INFO    : Bus 73	: V=1.00572, theta=-22.50148 -> V=1.0057, theta=-22.50165
% INFO    : Bus 74	: V=1.02661, theta=-20.30139 -> V=1.0266, theta=-20.30359
% INFO    : Bus 76	: V=0.99386, theta=-23.05455 -> V=0.99385, theta=-23.05417
% INFO    : Bus 77	: V=1.01535, theta=-21.52018 -> V=1.01535, theta=-21.51832
% INFO    : Bus 78	: V=1.02201, theta=-20.64335 -> V=1.02201, theta=-20.64129
% INFO    : Bus 79	: V=1.0127, theta=-21.9321 -> V=1.0127, theta=-21.92931
% INFO    : Bus 80	: V=1.01722, theta=-23.11744 -> V=1.01723, theta=-23.11028
% INFO    : Bus 81	: V=1.05459, theta=-17.9259 -> V=1.05459, theta=-17.93749
% INFO    : Bus 84	: V=1.06, theta=-13.27367 -> V=1.06, theta=-13.2716
% INFO    : Bus 85	: V=1.03741, theta=-11.87973 -> V=1.0374, theta=-11.86959
% INFO    : Bus 86	: V=1.03725, theta=-11.09403 -> V=1.03725, theta=-11.08346
% INFO    : Bus 87	: V=1.0277, theta=-12.60862 -> V=1.0277, theta=-12.59657
% INFO    : Bus 88	: V=1.04071, theta=-19.3975 -> V=1.0407, theta=-19.40419
% INFO    : Bus 89	: V=1.03734, theta=-15.19379 -> V=1.03734, theta=-15.1852
% INFO    : Bus 90	: V=1.03369, theta=-13.5721 -> V=1.03369, theta=-13.56525
% INFO    : Bus 91	: V=1.06, theta=-13.78888 -> V=1.06, theta=-13.77924
% INFO    : Bus 92	: V=1.06, theta=-7.44423 -> V=1.06, theta=-7.43648
% INFO    : Bus 94	: V=1.01995, theta=-13.76211 -> V=1.01995, theta=-13.75053
% INFO    : Bus 97	: V=1.0435, theta=-11.37697 -> V=1.0435, theta=-11.36721
% INFO    : Bus 98	: V=1.06, theta=-3.63059 -> V=1.06, theta=-3.62056
% INFO    : Bus 99	: V=1.03577, theta=-12.45946 -> V=1.03577, theta=-12.44964
% INFO    : Bus 100	: V=1.04553, theta=-8.80186 -> V=1.04553, theta=-8.79187
% INFO    : Bus 102	: V=1.03942, theta=-10.09836 -> V=1.03942, theta=-10.08823
% INFO    : Bus 103	: V=1.04609, theta=-11.4389 -> V=1.04609, theta=-11.4304
% INFO    : Bus 104	: V=1.03964, theta=-11.13714 -> V=1.03964, theta=-11.12711
% INFO    : Bus 105	: V=1.04157, theta=-12.14138 -> V=1.04157, theta=-12.13316
% INFO    : Bus 107	: V=1.03166, theta=-13.85612 -> V=1.03165, theta=-13.8483
% INFO    : Bus 108	: V=1.03921, theta=-12.02436 -> V=1.0392, theta=-12.01451
% INFO    : Bus 109	: V=1.01484, theta=-21.37122 -> V=1.01485, theta=-21.36125
% INFO    : Bus 110	: V=1.01384, theta=-19.55202 -> V=1.01385, theta=-19.54154
% INFO    : Bus 112	: V=1.01106, theta=-25.42127 -> V=1.01108, theta=-25.40572
% INFO    : Bus 113	: V=1.00183, theta=-23.20257 -> V=1.00182, theta=-23.19761
% INFO    : Bus 114	: V=1.01293, theta=-25.55402 -> V=1.01295, theta=-25.53795
% INFO    : Bus 115	: V=0.98242, theta=-26.79431 -> V=0.98242, theta=-26.77802
% INFO    : Bus 116	: V=1.05062, theta=-23.05259 -> V=1.05062, theta=-23.03597
% INFO    : Bus 117	: V=0.96212, theta=-19.01609 -> V=0.96212, theta=-18.99979
% INFO    : Bus 118	: V=0.95706, theta=-18.60601 -> V=0.95706, theta=-18.58971
% INFO    : Bus 119	: V=1.06, theta=-11.77104 -> V=1.06, theta=-11.75475
% INFO    : Bus 120	: V=0.98576, theta=-23.61643 -> V=0.98576, theta=-23.60006
% INFO    : Bus 121	: V=1.01309, theta=-26.89353 -> V=1.01309, theta=-26.87724
% INFO    : Bus 122	: V=0.99509, theta=-26.85563 -> V=0.99509, theta=-26.83934
% INFO    : Bus 123	: V=1.02372, theta=-27.76254 -> V=1.02372, theta=-27.74611
% INFO    : Bus 124	: V=1.0516, theta=-23.12912 -> V=1.0516, theta=-23.11246
% INFO    : Bus 125	: V=1.02561, theta=-28.13807 -> V=1.02561, theta=-28.12187
% INFO    : Bus 126	: V=1.01113, theta=-22.57111 -> V=1.01113, theta=-22.55495
% INFO    : Bus 127	: V=1.00735, theta=-18.04469 -> V=1.00735, theta=-18.02853
% INFO    : Bus 128	: V=1.00876, theta=-12.41742 -> V=1.00876, theta=-12.40143
% INFO    : Bus 129	: V=1.00917, theta=-12.30679 -> V=1.00917, theta=-12.29081
% INFO    : Bus 130	: V=1.03003, theta=-4.96556 -> V=1.03003, theta=-4.95019
% INFO    : Bus 131	: V=0.99704, theta=-5.71202 -> V=0.99704, theta=-5.69698
% INFO    : Bus 132	: V=1.016, theta=-7.41188 -> V=1.016, theta=-7.39645
% INFO    : Bus 133	: V=1.00522, theta=-12.41465 -> V=1.00522, theta=-12.39855
% INFO    : Bus 134	: V=1.0287, theta=-13.73469 -> V=1.0287, theta=-13.71834
% INFO    : Bus 135	: V=1.03089, theta=-14.56647 -> V=1.03089, theta=-14.54996
% INFO    : Bus 136	: V=1.06, theta=-10.80793 -> V=1.06, theta=-10.79109
% INFO    : Bus 137	: V=1.04643, theta=-6.54899 -> V=1.04643, theta=-6.53263
% INFO    : Bus 138	: V=1.06, theta=-11.191 -> V=1.06, theta=-11.17464
% INFO    : Bus 139	: V=1.00892, theta=-4.13661 -> V=1.00892, theta=-4.12029
% INFO    : Bus 140	: V=1.04309, theta=-6.92421 -> V=1.04309, theta=-6.90789
% INFO    : Bus 141	: V=1.04778, theta=-2.27873 -> V=1.04778, theta=-2.26244
% INFO    : Bus 142	: V=1.01517, theta=-3.98188 -> V=1.01517, theta=-3.96576
% INFO    : Bus 143	: V=1.04534, theta=4.6472 -> V=1.04534, theta=4.66314
% INFO    : Bus 144	: V=1.04478, theta=-5.36867 -> V=1.04477, theta=-5.35348
% INFO    : Bus 145	: V=1.00885, theta=-3.00797 -> V=1.00885, theta=-2.99186
% INFO    : Bus 146	: V=1.06, theta=-0.40987 -> V=1.06, theta=-0.39368
% INFO    : Bus 147	: V=1.06, theta=-1.24171 -> V=1.06, theta=-1.2255
% INFO    : Bus 148	: V=1.06, theta=0.14661 -> V=1.06, theta=0.1626
% INFO    : Bus 149	: V=1.06, theta=1.59657 -> V=1.06, theta=1.61257
% INFO    : Bus 150	: V=0.99969, theta=-5.62534 -> V=0.99969, theta=-5.61026
% INFO    : Bus 151	: V=1.01593, theta=-6.37388 -> V=1.01593, theta=-6.3585
% INFO    : Bus 152	: V=1.05793, theta=-9.01136 -> V=1.05793, theta=-8.99412
% INFO    : Bus 153	: V=1.05875, theta=-3.74355 -> V=1.05876, theta=-3.72532
% INFO    : Bus 154	: V=0.99069, theta=-14.93893 -> V=0.99069, theta=-14.92071
% INFO    : Bus 155	: V=1.04779, theta=-6.18824 -> V=1.0478, theta=-6.17013
% INFO    : Bus 156	: V=0.99183, theta=-7.75048 -> V=0.99183, theta=-7.73236
% INFO    : Bus 157	: V=1.00673, theta=-24.1768 -> V=1.00673, theta=-24.16053
% INFO    : Bus 158	: V=1.02078, theta=-22.67366 -> V=1.02078, theta=-22.65734
% INFO    : Bus 159	: V=1.01086, theta=-22.48367 -> V=1.01086, theta=-22.46738
% INFO    : Bus 160	: V=1.02593, theta=-22.94377 -> V=1.02593, theta=-22.92727
% INFO    : Bus 161	: V=1.05677, theta=-4.93676 -> V=1.05677, theta=-4.91856
% INFO    : Bus 162	: V=1.02459, theta=2.92718 -> V=1.0246, theta=2.9458
% INFO    : Bus 163	: V=1.06, theta=-5.24823 -> V=1.06, theta=-5.23116
% INFO    : Bus 164	: V=1.01475, theta=-3.08908 -> V=1.01476, theta=-3.07103
...